/*---------------------------------------------------------------------------*\
| =========                 |                                                 |
| \\      /  F ield         | OpenFOAM: The Open Source CFD Toolbox           |
|  \\    /   O peration     | Version:  2312                                  |
|   \\  /    A nd           | Website:  www.openfoam.com                      |
|    \\/     M anipulation  |                                                 |
\*---------------------------------------------------------------------------*/
Build  : _e651d635-20240208 OPENFOAM=2312 patch=240220 version=2312
Arch   : "LSB;label=32;scalar=64"
Exec   : thiFoam
Date   : Jun 14 2024
Time   : 09:24:04
Host   : thiago-MS-7D20
PID    : 10591
I/O    : uncollated
Case   : /home/thiago/Documentos/GitHub/modelagem-meios-porosos/escoamento-monofasico
nProcs : 1
trapFpe: Floating point exception trapping enabled (FOAM_SIGFPE).
fileModificationChecking : Monitoring run-time modified files using timeStampMaster (fileModificationSkew 5, maxFileModificationPolls 20)
allowSystemOperations : Allowing user-supplied system call operations

// * * * * * * * * * * * * * * * * * * * * * * * * * * * * * * * * * * * * * //
Create time

Create mesh for time = 0


SIMPLE: no convergence criteria found. Calculations will run for 3 steps.

Reading field T

Reading diffusivity DT

No finite volume options present

Calculating temperature distribution

Time = 0.0005

DICPCG:  Solving for T, Initial residual = 1, Final residual = 9.2044e-07, No Iterations 232
DICPCG:  Solving for T, Initial residual = 3.21763e-07, Final residual = 3.21763e-07, No Iterations 0
ExecutionTime = 0.4 s  ClockTime = 0 s

Time = 0.001

DICPCG:  Solving for T, Initial residual = 3.21763e-07, Final residual = 3.21763e-07, No Iterations 0
DICPCG:  Solving for T, Initial residual = 3.21763e-07, Final residual = 3.21763e-07, No Iterations 0
ExecutionTime = 0.41 s  ClockTime = 0 s

Time = 0.0015

DICPCG:  Solving for T, Initial residual = 3.21763e-07, Final residual = 3.21763e-07, No Iterations 0
DICPCG:  Solving for T, Initial residual = 3.21763e-07, Final residual = 3.21763e-07, No Iterations 0
ExecutionTime = 0.42 s  ClockTime = 0 s

Time = 0.002

DICPCG:  Solving for T, Initial residual = 3.21763e-07, Final residual = 3.21763e-07, No Iterations 0
DICPCG:  Solving for T, Initial residual = 3.21763e-07, Final residual = 3.21763e-07, No Iterations 0
ExecutionTime = 0.43 s  ClockTime = 0 s

Time = 0.0025

DICPCG:  Solving for T, Initial residual = 3.21763e-07, Final residual = 3.21763e-07, No Iterations 0
DICPCG:  Solving for T, Initial residual = 3.21763e-07, Final residual = 3.21763e-07, No Iterations 0
ExecutionTime = 0.44 s  ClockTime = 0 s

Time = 0.003

DICPCG:  Solving for T, Initial residual = 3.21763e-07, Final residual = 3.21763e-07, No Iterations 0
DICPCG:  Solving for T, Initial residual = 3.21763e-07, Final residual = 3.21763e-07, No Iterations 0
ExecutionTime = 0.45 s  ClockTime = 0 s

Time = 0.0035

DICPCG:  Solving for T, Initial residual = 3.21763e-07, Final residual = 3.21763e-07, No Iterations 0
DICPCG:  Solving for T, Initial residual = 3.21763e-07, Final residual = 3.21763e-07, No Iterations 0
ExecutionTime = 0.45 s  ClockTime = 0 s

Time = 0.004

DICPCG:  Solving for T, Initial residual = 3.21763e-07, Final residual = 3.21763e-07, No Iterations 0
DICPCG:  Solving for T, Initial residual = 3.21763e-07, Final residual = 3.21763e-07, No Iterations 0
ExecutionTime = 0.46 s  ClockTime = 0 s

Time = 0.0045

DICPCG:  Solving for T, Initial residual = 3.21763e-07, Final residual = 3.21763e-07, No Iterations 0
DICPCG:  Solving for T, Initial residual = 3.21763e-07, Final residual = 3.21763e-07, No Iterations 0
ExecutionTime = 0.47 s  ClockTime = 0 s

Time = 0.005

DICPCG:  Solving for T, Initial residual = 3.21763e-07, Final residual = 3.21763e-07, No Iterations 0
DICPCG:  Solving for T, Initial residual = 3.21763e-07, Final residual = 3.21763e-07, No Iterations 0
ExecutionTime = 0.48 s  ClockTime = 0 s

Time = 0.0055

DICPCG:  Solving for T, Initial residual = 3.21763e-07, Final residual = 3.21763e-07, No Iterations 0
DICPCG:  Solving for T, Initial residual = 3.21763e-07, Final residual = 3.21763e-07, No Iterations 0
ExecutionTime = 0.49 s  ClockTime = 0 s

Time = 0.006

DICPCG:  Solving for T, Initial residual = 3.21763e-07, Final residual = 3.21763e-07, No Iterations 0
DICPCG:  Solving for T, Initial residual = 3.21763e-07, Final residual = 3.21763e-07, No Iterations 0
ExecutionTime = 0.49 s  ClockTime = 0 s

Time = 0.0065

DICPCG:  Solving for T, Initial residual = 3.21763e-07, Final residual = 3.21763e-07, No Iterations 0
DICPCG:  Solving for T, Initial residual = 3.21763e-07, Final residual = 3.21763e-07, No Iterations 0
ExecutionTime = 0.5 s  ClockTime = 0 s

Time = 0.007

DICPCG:  Solving for T, Initial residual = 3.21763e-07, Final residual = 3.21763e-07, No Iterations 0
DICPCG:  Solving for T, Initial residual = 3.21763e-07, Final residual = 3.21763e-07, No Iterations 0
ExecutionTime = 0.51 s  ClockTime = 0 s

Time = 0.0075

DICPCG:  Solving for T, Initial residual = 3.21763e-07, Final residual = 3.21763e-07, No Iterations 0
DICPCG:  Solving for T, Initial residual = 3.21763e-07, Final residual = 3.21763e-07, No Iterations 0
ExecutionTime = 0.52 s  ClockTime = 0 s

Time = 0.008

DICPCG:  Solving for T, Initial residual = 3.21763e-07, Final residual = 3.21763e-07, No Iterations 0
DICPCG:  Solving for T, Initial residual = 3.21763e-07, Final residual = 3.21763e-07, No Iterations 0
ExecutionTime = 0.52 s  ClockTime = 0 s

Time = 0.0085

DICPCG:  Solving for T, Initial residual = 3.21763e-07, Final residual = 3.21763e-07, No Iterations 0
DICPCG:  Solving for T, Initial residual = 3.21763e-07, Final residual = 3.21763e-07, No Iterations 0
ExecutionTime = 0.53 s  ClockTime = 0 s

Time = 0.009

DICPCG:  Solving for T, Initial residual = 3.21763e-07, Final residual = 3.21763e-07, No Iterations 0
DICPCG:  Solving for T, Initial residual = 3.21763e-07, Final residual = 3.21763e-07, No Iterations 0
ExecutionTime = 0.53 s  ClockTime = 0 s

Time = 0.0095

DICPCG:  Solving for T, Initial residual = 3.21763e-07, Final residual = 3.21763e-07, No Iterations 0
DICPCG:  Solving for T, Initial residual = 3.21763e-07, Final residual = 3.21763e-07, No Iterations 0
ExecutionTime = 0.54 s  ClockTime = 0 s

Time = 0.01

DICPCG:  Solving for T, Initial residual = 3.21763e-07, Final residual = 3.21763e-07, No Iterations 0
DICPCG:  Solving for T, Initial residual = 3.21763e-07, Final residual = 3.21763e-07, No Iterations 0
ExecutionTime = 0.55 s  ClockTime = 0 s

Time = 0.0105

DICPCG:  Solving for T, Initial residual = 3.21763e-07, Final residual = 3.21763e-07, No Iterations 0
DICPCG:  Solving for T, Initial residual = 3.21763e-07, Final residual = 3.21763e-07, No Iterations 0
ExecutionTime = 0.56 s  ClockTime = 0 s

Time = 0.011

DICPCG:  Solving for T, Initial residual = 3.21763e-07, Final residual = 3.21763e-07, No Iterations 0
DICPCG:  Solving for T, Initial residual = 3.21763e-07, Final residual = 3.21763e-07, No Iterations 0
ExecutionTime = 0.56 s  ClockTime = 0 s

Time = 0.0115

DICPCG:  Solving for T, Initial residual = 3.21763e-07, Final residual = 3.21763e-07, No Iterations 0
DICPCG:  Solving for T, Initial residual = 3.21763e-07, Final residual = 3.21763e-07, No Iterations 0
ExecutionTime = 0.57 s  ClockTime = 0 s

Time = 0.012

DICPCG:  Solving for T, Initial residual = 3.21763e-07, Final residual = 3.21763e-07, No Iterations 0
DICPCG:  Solving for T, Initial residual = 3.21763e-07, Final residual = 3.21763e-07, No Iterations 0
ExecutionTime = 0.58 s  ClockTime = 0 s

Time = 0.0125

DICPCG:  Solving for T, Initial residual = 3.21763e-07, Final residual = 3.21763e-07, No Iterations 0
DICPCG:  Solving for T, Initial residual = 3.21763e-07, Final residual = 3.21763e-07, No Iterations 0
ExecutionTime = 0.58 s  ClockTime = 0 s

Time = 0.013

DICPCG:  Solving for T, Initial residual = 3.21763e-07, Final residual = 3.21763e-07, No Iterations 0
DICPCG:  Solving for T, Initial residual = 3.21763e-07, Final residual = 3.21763e-07, No Iterations 0
ExecutionTime = 0.59 s  ClockTime = 0 s

Time = 0.0135

DICPCG:  Solving for T, Initial residual = 3.21763e-07, Final residual = 3.21763e-07, No Iterations 0
DICPCG:  Solving for T, Initial residual = 3.21763e-07, Final residual = 3.21763e-07, No Iterations 0
ExecutionTime = 0.6 s  ClockTime = 0 s

Time = 0.014

DICPCG:  Solving for T, Initial residual = 3.21763e-07, Final residual = 3.21763e-07, No Iterations 0
DICPCG:  Solving for T, Initial residual = 3.21763e-07, Final residual = 3.21763e-07, No Iterations 0
ExecutionTime = 0.6 s  ClockTime = 0 s

Time = 0.0145

DICPCG:  Solving for T, Initial residual = 3.21763e-07, Final residual = 3.21763e-07, No Iterations 0
DICPCG:  Solving for T, Initial residual = 3.21763e-07, Final residual = 3.21763e-07, No Iterations 0
ExecutionTime = 0.61 s  ClockTime = 0 s

Time = 0.015

DICPCG:  Solving for T, Initial residual = 3.21763e-07, Final residual = 3.21763e-07, No Iterations 0
DICPCG:  Solving for T, Initial residual = 3.21763e-07, Final residual = 3.21763e-07, No Iterations 0
ExecutionTime = 0.61 s  ClockTime = 0 s

Time = 0.0155

DICPCG:  Solving for T, Initial residual = 3.21763e-07, Final residual = 3.21763e-07, No Iterations 0
DICPCG:  Solving for T, Initial residual = 3.21763e-07, Final residual = 3.21763e-07, No Iterations 0
ExecutionTime = 0.62 s  ClockTime = 0 s

Time = 0.016

DICPCG:  Solving for T, Initial residual = 3.21763e-07, Final residual = 3.21763e-07, No Iterations 0
DICPCG:  Solving for T, Initial residual = 3.21763e-07, Final residual = 3.21763e-07, No Iterations 0
ExecutionTime = 0.63 s  ClockTime = 0 s

Time = 0.0165

DICPCG:  Solving for T, Initial residual = 3.21763e-07, Final residual = 3.21763e-07, No Iterations 0
DICPCG:  Solving for T, Initial residual = 3.21763e-07, Final residual = 3.21763e-07, No Iterations 0
ExecutionTime = 0.64 s  ClockTime = 0 s

Time = 0.017

DICPCG:  Solving for T, Initial residual = 3.21763e-07, Final residual = 3.21763e-07, No Iterations 0
DICPCG:  Solving for T, Initial residual = 3.21763e-07, Final residual = 3.21763e-07, No Iterations 0
ExecutionTime = 0.65 s  ClockTime = 0 s

Time = 0.0175

DICPCG:  Solving for T, Initial residual = 3.21763e-07, Final residual = 3.21763e-07, No Iterations 0
DICPCG:  Solving for T, Initial residual = 3.21763e-07, Final residual = 3.21763e-07, No Iterations 0
ExecutionTime = 0.66 s  ClockTime = 0 s

Time = 0.018

DICPCG:  Solving for T, Initial residual = 3.21763e-07, Final residual = 3.21763e-07, No Iterations 0
DICPCG:  Solving for T, Initial residual = 3.21763e-07, Final residual = 3.21763e-07, No Iterations 0
ExecutionTime = 0.66 s  ClockTime = 0 s

Time = 0.0185

DICPCG:  Solving for T, Initial residual = 3.21763e-07, Final residual = 3.21763e-07, No Iterations 0
DICPCG:  Solving for T, Initial residual = 3.21763e-07, Final residual = 3.21763e-07, No Iterations 0
ExecutionTime = 0.67 s  ClockTime = 0 s

Time = 0.019

DICPCG:  Solving for T, Initial residual = 3.21763e-07, Final residual = 3.21763e-07, No Iterations 0
DICPCG:  Solving for T, Initial residual = 3.21763e-07, Final residual = 3.21763e-07, No Iterations 0
ExecutionTime = 0.68 s  ClockTime = 0 s

Time = 0.0195

DICPCG:  Solving for T, Initial residual = 3.21763e-07, Final residual = 3.21763e-07, No Iterations 0
DICPCG:  Solving for T, Initial residual = 3.21763e-07, Final residual = 3.21763e-07, No Iterations 0
ExecutionTime = 0.69 s  ClockTime = 0 s

Time = 0.02

DICPCG:  Solving for T, Initial residual = 3.21763e-07, Final residual = 3.21763e-07, No Iterations 0
DICPCG:  Solving for T, Initial residual = 3.21763e-07, Final residual = 3.21763e-07, No Iterations 0
ExecutionTime = 0.69 s  ClockTime = 0 s

Time = 0.0205

DICPCG:  Solving for T, Initial residual = 3.21763e-07, Final residual = 3.21763e-07, No Iterations 0
DICPCG:  Solving for T, Initial residual = 3.21763e-07, Final residual = 3.21763e-07, No Iterations 0
ExecutionTime = 0.7 s  ClockTime = 0 s

Time = 0.021

DICPCG:  Solving for T, Initial residual = 3.21763e-07, Final residual = 3.21763e-07, No Iterations 0
DICPCG:  Solving for T, Initial residual = 3.21763e-07, Final residual = 3.21763e-07, No Iterations 0
ExecutionTime = 0.7 s  ClockTime = 0 s

Time = 0.0215

DICPCG:  Solving for T, Initial residual = 3.21763e-07, Final residual = 3.21763e-07, No Iterations 0
DICPCG:  Solving for T, Initial residual = 3.21763e-07, Final residual = 3.21763e-07, No Iterations 0
ExecutionTime = 0.71 s  ClockTime = 0 s

Time = 0.022

DICPCG:  Solving for T, Initial residual = 3.21763e-07, Final residual = 3.21763e-07, No Iterations 0
DICPCG:  Solving for T, Initial residual = 3.21763e-07, Final residual = 3.21763e-07, No Iterations 0
ExecutionTime = 0.72 s  ClockTime = 0 s

Time = 0.0225

DICPCG:  Solving for T, Initial residual = 3.21763e-07, Final residual = 3.21763e-07, No Iterations 0
DICPCG:  Solving for T, Initial residual = 3.21763e-07, Final residual = 3.21763e-07, No Iterations 0
ExecutionTime = 0.72 s  ClockTime = 0 s

Time = 0.023

DICPCG:  Solving for T, Initial residual = 3.21763e-07, Final residual = 3.21763e-07, No Iterations 0
DICPCG:  Solving for T, Initial residual = 3.21763e-07, Final residual = 3.21763e-07, No Iterations 0
ExecutionTime = 0.73 s  ClockTime = 0 s

Time = 0.0235

DICPCG:  Solving for T, Initial residual = 3.21763e-07, Final residual = 3.21763e-07, No Iterations 0
DICPCG:  Solving for T, Initial residual = 3.21763e-07, Final residual = 3.21763e-07, No Iterations 0
ExecutionTime = 0.74 s  ClockTime = 0 s

Time = 0.024

DICPCG:  Solving for T, Initial residual = 3.21763e-07, Final residual = 3.21763e-07, No Iterations 0
DICPCG:  Solving for T, Initial residual = 3.21763e-07, Final residual = 3.21763e-07, No Iterations 0
ExecutionTime = 0.75 s  ClockTime = 0 s

Time = 0.0245

DICPCG:  Solving for T, Initial residual = 3.21763e-07, Final residual = 3.21763e-07, No Iterations 0
DICPCG:  Solving for T, Initial residual = 3.21763e-07, Final residual = 3.21763e-07, No Iterations 0
ExecutionTime = 0.76 s  ClockTime = 0 s

Time = 0.025

DICPCG:  Solving for T, Initial residual = 3.21763e-07, Final residual = 3.21763e-07, No Iterations 0
DICPCG:  Solving for T, Initial residual = 3.21763e-07, Final residual = 3.21763e-07, No Iterations 0
ExecutionTime = 0.76 s  ClockTime = 0 s

Time = 0.0255

DICPCG:  Solving for T, Initial residual = 3.21763e-07, Final residual = 3.21763e-07, No Iterations 0
DICPCG:  Solving for T, Initial residual = 3.21763e-07, Final residual = 3.21763e-07, No Iterations 0
ExecutionTime = 0.77 s  ClockTime = 0 s

Time = 0.026

DICPCG:  Solving for T, Initial residual = 3.21763e-07, Final residual = 3.21763e-07, No Iterations 0
DICPCG:  Solving for T, Initial residual = 3.21763e-07, Final residual = 3.21763e-07, No Iterations 0
ExecutionTime = 0.78 s  ClockTime = 0 s

Time = 0.0265

DICPCG:  Solving for T, Initial residual = 3.21763e-07, Final residual = 3.21763e-07, No Iterations 0
DICPCG:  Solving for T, Initial residual = 3.21763e-07, Final residual = 3.21763e-07, No Iterations 0
ExecutionTime = 0.79 s  ClockTime = 0 s

Time = 0.027

DICPCG:  Solving for T, Initial residual = 3.21763e-07, Final residual = 3.21763e-07, No Iterations 0
DICPCG:  Solving for T, Initial residual = 3.21763e-07, Final residual = 3.21763e-07, No Iterations 0
ExecutionTime = 0.8 s  ClockTime = 0 s

Time = 0.0275

DICPCG:  Solving for T, Initial residual = 3.21763e-07, Final residual = 3.21763e-07, No Iterations 0
DICPCG:  Solving for T, Initial residual = 3.21763e-07, Final residual = 3.21763e-07, No Iterations 0
ExecutionTime = 0.8 s  ClockTime = 0 s

Time = 0.028

DICPCG:  Solving for T, Initial residual = 3.21763e-07, Final residual = 3.21763e-07, No Iterations 0
DICPCG:  Solving for T, Initial residual = 3.21763e-07, Final residual = 3.21763e-07, No Iterations 0
ExecutionTime = 0.81 s  ClockTime = 0 s

Time = 0.0285

DICPCG:  Solving for T, Initial residual = 3.21763e-07, Final residual = 3.21763e-07, No Iterations 0
DICPCG:  Solving for T, Initial residual = 3.21763e-07, Final residual = 3.21763e-07, No Iterations 0
ExecutionTime = 0.82 s  ClockTime = 0 s

Time = 0.029

DICPCG:  Solving for T, Initial residual = 3.21763e-07, Final residual = 3.21763e-07, No Iterations 0
DICPCG:  Solving for T, Initial residual = 3.21763e-07, Final residual = 3.21763e-07, No Iterations 0
ExecutionTime = 0.83 s  ClockTime = 0 s

Time = 0.0295

DICPCG:  Solving for T, Initial residual = 3.21763e-07, Final residual = 3.21763e-07, No Iterations 0
DICPCG:  Solving for T, Initial residual = 3.21763e-07, Final residual = 3.21763e-07, No Iterations 0
ExecutionTime = 0.83 s  ClockTime = 0 s

Time = 0.03

DICPCG:  Solving for T, Initial residual = 3.21763e-07, Final residual = 3.21763e-07, No Iterations 0
DICPCG:  Solving for T, Initial residual = 3.21763e-07, Final residual = 3.21763e-07, No Iterations 0
ExecutionTime = 0.84 s  ClockTime = 0 s

Time = 0.0305

DICPCG:  Solving for T, Initial residual = 3.21763e-07, Final residual = 3.21763e-07, No Iterations 0
DICPCG:  Solving for T, Initial residual = 3.21763e-07, Final residual = 3.21763e-07, No Iterations 0
ExecutionTime = 0.85 s  ClockTime = 0 s

Time = 0.031

DICPCG:  Solving for T, Initial residual = 3.21763e-07, Final residual = 3.21763e-07, No Iterations 0
DICPCG:  Solving for T, Initial residual = 3.21763e-07, Final residual = 3.21763e-07, No Iterations 0
ExecutionTime = 0.86 s  ClockTime = 0 s

Time = 0.0315

DICPCG:  Solving for T, Initial residual = 3.21763e-07, Final residual = 3.21763e-07, No Iterations 0
DICPCG:  Solving for T, Initial residual = 3.21763e-07, Final residual = 3.21763e-07, No Iterations 0
ExecutionTime = 0.87 s  ClockTime = 0 s

Time = 0.032

DICPCG:  Solving for T, Initial residual = 3.21763e-07, Final residual = 3.21763e-07, No Iterations 0
DICPCG:  Solving for T, Initial residual = 3.21763e-07, Final residual = 3.21763e-07, No Iterations 0
ExecutionTime = 0.87 s  ClockTime = 0 s

Time = 0.0325

DICPCG:  Solving for T, Initial residual = 3.21763e-07, Final residual = 3.21763e-07, No Iterations 0
DICPCG:  Solving for T, Initial residual = 3.21763e-07, Final residual = 3.21763e-07, No Iterations 0
ExecutionTime = 0.88 s  ClockTime = 0 s

Time = 0.033

DICPCG:  Solving for T, Initial residual = 3.21763e-07, Final residual = 3.21763e-07, No Iterations 0
DICPCG:  Solving for T, Initial residual = 3.21763e-07, Final residual = 3.21763e-07, No Iterations 0
ExecutionTime = 0.89 s  ClockTime = 0 s

Time = 0.0335

DICPCG:  Solving for T, Initial residual = 3.21763e-07, Final residual = 3.21763e-07, No Iterations 0
DICPCG:  Solving for T, Initial residual = 3.21763e-07, Final residual = 3.21763e-07, No Iterations 0
ExecutionTime = 0.89 s  ClockTime = 0 s

Time = 0.034

DICPCG:  Solving for T, Initial residual = 3.21763e-07, Final residual = 3.21763e-07, No Iterations 0
DICPCG:  Solving for T, Initial residual = 3.21763e-07, Final residual = 3.21763e-07, No Iterations 0
ExecutionTime = 0.9 s  ClockTime = 0 s

Time = 0.0345

DICPCG:  Solving for T, Initial residual = 3.21763e-07, Final residual = 3.21763e-07, No Iterations 0
DICPCG:  Solving for T, Initial residual = 3.21763e-07, Final residual = 3.21763e-07, No Iterations 0
ExecutionTime = 0.92 s  ClockTime = 0 s

Time = 0.035

DICPCG:  Solving for T, Initial residual = 3.21763e-07, Final residual = 3.21763e-07, No Iterations 0
DICPCG:  Solving for T, Initial residual = 3.21763e-07, Final residual = 3.21763e-07, No Iterations 0
ExecutionTime = 0.92 s  ClockTime = 0 s

Time = 0.0355

DICPCG:  Solving for T, Initial residual = 3.21763e-07, Final residual = 3.21763e-07, No Iterations 0
DICPCG:  Solving for T, Initial residual = 3.21763e-07, Final residual = 3.21763e-07, No Iterations 0
ExecutionTime = 0.93 s  ClockTime = 1 s

Time = 0.036

DICPCG:  Solving for T, Initial residual = 3.21763e-07, Final residual = 3.21763e-07, No Iterations 0
DICPCG:  Solving for T, Initial residual = 3.21763e-07, Final residual = 3.21763e-07, No Iterations 0
ExecutionTime = 0.94 s  ClockTime = 1 s

Time = 0.0365

DICPCG:  Solving for T, Initial residual = 3.21763e-07, Final residual = 3.21763e-07, No Iterations 0
DICPCG:  Solving for T, Initial residual = 3.21763e-07, Final residual = 3.21763e-07, No Iterations 0
ExecutionTime = 0.95 s  ClockTime = 1 s

Time = 0.037

DICPCG:  Solving for T, Initial residual = 3.21763e-07, Final residual = 3.21763e-07, No Iterations 0
DICPCG:  Solving for T, Initial residual = 3.21763e-07, Final residual = 3.21763e-07, No Iterations 0
ExecutionTime = 0.96 s  ClockTime = 1 s

Time = 0.0375

DICPCG:  Solving for T, Initial residual = 3.21763e-07, Final residual = 3.21763e-07, No Iterations 0
DICPCG:  Solving for T, Initial residual = 3.21763e-07, Final residual = 3.21763e-07, No Iterations 0
ExecutionTime = 0.96 s  ClockTime = 1 s

Time = 0.038

DICPCG:  Solving for T, Initial residual = 3.21763e-07, Final residual = 3.21763e-07, No Iterations 0
DICPCG:  Solving for T, Initial residual = 3.21763e-07, Final residual = 3.21763e-07, No Iterations 0
ExecutionTime = 0.97 s  ClockTime = 1 s

Time = 0.0385

DICPCG:  Solving for T, Initial residual = 3.21763e-07, Final residual = 3.21763e-07, No Iterations 0
DICPCG:  Solving for T, Initial residual = 3.21763e-07, Final residual = 3.21763e-07, No Iterations 0
ExecutionTime = 0.98 s  ClockTime = 1 s

Time = 0.039

DICPCG:  Solving for T, Initial residual = 3.21763e-07, Final residual = 3.21763e-07, No Iterations 0
DICPCG:  Solving for T, Initial residual = 3.21763e-07, Final residual = 3.21763e-07, No Iterations 0
ExecutionTime = 0.99 s  ClockTime = 1 s

Time = 0.0395

DICPCG:  Solving for T, Initial residual = 3.21763e-07, Final residual = 3.21763e-07, No Iterations 0
DICPCG:  Solving for T, Initial residual = 3.21763e-07, Final residual = 3.21763e-07, No Iterations 0
ExecutionTime = 0.99 s  ClockTime = 1 s

Time = 0.04

DICPCG:  Solving for T, Initial residual = 3.21763e-07, Final residual = 3.21763e-07, No Iterations 0
DICPCG:  Solving for T, Initial residual = 3.21763e-07, Final residual = 3.21763e-07, No Iterations 0
ExecutionTime = 1 s  ClockTime = 1 s

Time = 0.0405

DICPCG:  Solving for T, Initial residual = 3.21763e-07, Final residual = 3.21763e-07, No Iterations 0
DICPCG:  Solving for T, Initial residual = 3.21763e-07, Final residual = 3.21763e-07, No Iterations 0
ExecutionTime = 1.01 s  ClockTime = 1 s

Time = 0.041

DICPCG:  Solving for T, Initial residual = 3.21763e-07, Final residual = 3.21763e-07, No Iterations 0
DICPCG:  Solving for T, Initial residual = 3.21763e-07, Final residual = 3.21763e-07, No Iterations 0
ExecutionTime = 1.02 s  ClockTime = 1 s

Time = 0.0415

DICPCG:  Solving for T, Initial residual = 3.21763e-07, Final residual = 3.21763e-07, No Iterations 0
DICPCG:  Solving for T, Initial residual = 3.21763e-07, Final residual = 3.21763e-07, No Iterations 0
ExecutionTime = 1.03 s  ClockTime = 1 s

Time = 0.042

DICPCG:  Solving for T, Initial residual = 3.21763e-07, Final residual = 3.21763e-07, No Iterations 0
DICPCG:  Solving for T, Initial residual = 3.21763e-07, Final residual = 3.21763e-07, No Iterations 0
ExecutionTime = 1.03 s  ClockTime = 1 s

Time = 0.0425

DICPCG:  Solving for T, Initial residual = 3.21763e-07, Final residual = 3.21763e-07, No Iterations 0
DICPCG:  Solving for T, Initial residual = 3.21763e-07, Final residual = 3.21763e-07, No Iterations 0
ExecutionTime = 1.04 s  ClockTime = 1 s

Time = 0.043

DICPCG:  Solving for T, Initial residual = 3.21763e-07, Final residual = 3.21763e-07, No Iterations 0
DICPCG:  Solving for T, Initial residual = 3.21763e-07, Final residual = 3.21763e-07, No Iterations 0
ExecutionTime = 1.05 s  ClockTime = 1 s

Time = 0.0435

DICPCG:  Solving for T, Initial residual = 3.21763e-07, Final residual = 3.21763e-07, No Iterations 0
DICPCG:  Solving for T, Initial residual = 3.21763e-07, Final residual = 3.21763e-07, No Iterations 0
ExecutionTime = 1.05 s  ClockTime = 1 s

Time = 0.044

DICPCG:  Solving for T, Initial residual = 3.21763e-07, Final residual = 3.21763e-07, No Iterations 0
DICPCG:  Solving for T, Initial residual = 3.21763e-07, Final residual = 3.21763e-07, No Iterations 0
ExecutionTime = 1.06 s  ClockTime = 1 s

Time = 0.0445

DICPCG:  Solving for T, Initial residual = 3.21763e-07, Final residual = 3.21763e-07, No Iterations 0
DICPCG:  Solving for T, Initial residual = 3.21763e-07, Final residual = 3.21763e-07, No Iterations 0
ExecutionTime = 1.07 s  ClockTime = 1 s

Time = 0.045

DICPCG:  Solving for T, Initial residual = 3.21763e-07, Final residual = 3.21763e-07, No Iterations 0
DICPCG:  Solving for T, Initial residual = 3.21763e-07, Final residual = 3.21763e-07, No Iterations 0
ExecutionTime = 1.08 s  ClockTime = 1 s

Time = 0.0455

DICPCG:  Solving for T, Initial residual = 3.21763e-07, Final residual = 3.21763e-07, No Iterations 0
DICPCG:  Solving for T, Initial residual = 3.21763e-07, Final residual = 3.21763e-07, No Iterations 0
ExecutionTime = 1.09 s  ClockTime = 1 s

Time = 0.046

DICPCG:  Solving for T, Initial residual = 3.21763e-07, Final residual = 3.21763e-07, No Iterations 0
DICPCG:  Solving for T, Initial residual = 3.21763e-07, Final residual = 3.21763e-07, No Iterations 0
ExecutionTime = 1.1 s  ClockTime = 1 s

Time = 0.0465

DICPCG:  Solving for T, Initial residual = 3.21763e-07, Final residual = 3.21763e-07, No Iterations 0
DICPCG:  Solving for T, Initial residual = 3.21763e-07, Final residual = 3.21763e-07, No Iterations 0
ExecutionTime = 1.1 s  ClockTime = 1 s

Time = 0.047

DICPCG:  Solving for T, Initial residual = 3.21763e-07, Final residual = 3.21763e-07, No Iterations 0
DICPCG:  Solving for T, Initial residual = 3.21763e-07, Final residual = 3.21763e-07, No Iterations 0
ExecutionTime = 1.11 s  ClockTime = 1 s

Time = 0.0475

DICPCG:  Solving for T, Initial residual = 3.21763e-07, Final residual = 3.21763e-07, No Iterations 0
DICPCG:  Solving for T, Initial residual = 3.21763e-07, Final residual = 3.21763e-07, No Iterations 0
ExecutionTime = 1.12 s  ClockTime = 1 s

Time = 0.048

DICPCG:  Solving for T, Initial residual = 3.21763e-07, Final residual = 3.21763e-07, No Iterations 0
DICPCG:  Solving for T, Initial residual = 3.21763e-07, Final residual = 3.21763e-07, No Iterations 0
ExecutionTime = 1.13 s  ClockTime = 1 s

Time = 0.0485

DICPCG:  Solving for T, Initial residual = 3.21763e-07, Final residual = 3.21763e-07, No Iterations 0
DICPCG:  Solving for T, Initial residual = 3.21763e-07, Final residual = 3.21763e-07, No Iterations 0
ExecutionTime = 1.14 s  ClockTime = 1 s

Time = 0.049

DICPCG:  Solving for T, Initial residual = 3.21763e-07, Final residual = 3.21763e-07, No Iterations 0
DICPCG:  Solving for T, Initial residual = 3.21763e-07, Final residual = 3.21763e-07, No Iterations 0
ExecutionTime = 1.14 s  ClockTime = 1 s

Time = 0.0495

DICPCG:  Solving for T, Initial residual = 3.21763e-07, Final residual = 3.21763e-07, No Iterations 0
DICPCG:  Solving for T, Initial residual = 3.21763e-07, Final residual = 3.21763e-07, No Iterations 0
ExecutionTime = 1.15 s  ClockTime = 1 s

Time = 0.05

DICPCG:  Solving for T, Initial residual = 3.21763e-07, Final residual = 3.21763e-07, No Iterations 0
DICPCG:  Solving for T, Initial residual = 3.21763e-07, Final residual = 3.21763e-07, No Iterations 0
ExecutionTime = 1.29 s  ClockTime = 1 s

Time = 0.0505

DICPCG:  Solving for T, Initial residual = 3.21763e-07, Final residual = 3.21763e-07, No Iterations 0
DICPCG:  Solving for T, Initial residual = 3.21763e-07, Final residual = 3.21763e-07, No Iterations 0
ExecutionTime = 1.29 s  ClockTime = 1 s

Time = 0.051

DICPCG:  Solving for T, Initial residual = 3.21763e-07, Final residual = 3.21763e-07, No Iterations 0
DICPCG:  Solving for T, Initial residual = 3.21763e-07, Final residual = 3.21763e-07, No Iterations 0
ExecutionTime = 1.3 s  ClockTime = 1 s

Time = 0.0515

DICPCG:  Solving for T, Initial residual = 3.21763e-07, Final residual = 3.21763e-07, No Iterations 0
DICPCG:  Solving for T, Initial residual = 3.21763e-07, Final residual = 3.21763e-07, No Iterations 0
ExecutionTime = 1.31 s  ClockTime = 1 s

Time = 0.052

DICPCG:  Solving for T, Initial residual = 3.21763e-07, Final residual = 3.21763e-07, No Iterations 0
DICPCG:  Solving for T, Initial residual = 3.21763e-07, Final residual = 3.21763e-07, No Iterations 0
ExecutionTime = 1.31 s  ClockTime = 1 s

Time = 0.0525

DICPCG:  Solving for T, Initial residual = 3.21763e-07, Final residual = 3.21763e-07, No Iterations 0
DICPCG:  Solving for T, Initial residual = 3.21763e-07, Final residual = 3.21763e-07, No Iterations 0
ExecutionTime = 1.32 s  ClockTime = 1 s

Time = 0.053

DICPCG:  Solving for T, Initial residual = 3.21763e-07, Final residual = 3.21763e-07, No Iterations 0
DICPCG:  Solving for T, Initial residual = 3.21763e-07, Final residual = 3.21763e-07, No Iterations 0
ExecutionTime = 1.33 s  ClockTime = 1 s

Time = 0.0535

DICPCG:  Solving for T, Initial residual = 3.21763e-07, Final residual = 3.21763e-07, No Iterations 0
DICPCG:  Solving for T, Initial residual = 3.21763e-07, Final residual = 3.21763e-07, No Iterations 0
ExecutionTime = 1.33 s  ClockTime = 1 s

Time = 0.054

DICPCG:  Solving for T, Initial residual = 3.21763e-07, Final residual = 3.21763e-07, No Iterations 0
DICPCG:  Solving for T, Initial residual = 3.21763e-07, Final residual = 3.21763e-07, No Iterations 0
ExecutionTime = 1.33 s  ClockTime = 1 s

Time = 0.0545

DICPCG:  Solving for T, Initial residual = 3.21763e-07, Final residual = 3.21763e-07, No Iterations 0
DICPCG:  Solving for T, Initial residual = 3.21763e-07, Final residual = 3.21763e-07, No Iterations 0
ExecutionTime = 1.34 s  ClockTime = 1 s

Time = 0.055

DICPCG:  Solving for T, Initial residual = 3.21763e-07, Final residual = 3.21763e-07, No Iterations 0
DICPCG:  Solving for T, Initial residual = 3.21763e-07, Final residual = 3.21763e-07, No Iterations 0
ExecutionTime = 1.35 s  ClockTime = 1 s

Time = 0.0555

DICPCG:  Solving for T, Initial residual = 3.21763e-07, Final residual = 3.21763e-07, No Iterations 0
DICPCG:  Solving for T, Initial residual = 3.21763e-07, Final residual = 3.21763e-07, No Iterations 0
ExecutionTime = 1.36 s  ClockTime = 1 s

Time = 0.056

DICPCG:  Solving for T, Initial residual = 3.21763e-07, Final residual = 3.21763e-07, No Iterations 0
DICPCG:  Solving for T, Initial residual = 3.21763e-07, Final residual = 3.21763e-07, No Iterations 0
ExecutionTime = 1.37 s  ClockTime = 1 s

Time = 0.0565

DICPCG:  Solving for T, Initial residual = 3.21763e-07, Final residual = 3.21763e-07, No Iterations 0
DICPCG:  Solving for T, Initial residual = 3.21763e-07, Final residual = 3.21763e-07, No Iterations 0
ExecutionTime = 1.38 s  ClockTime = 1 s

Time = 0.057

DICPCG:  Solving for T, Initial residual = 3.21763e-07, Final residual = 3.21763e-07, No Iterations 0
DICPCG:  Solving for T, Initial residual = 3.21763e-07, Final residual = 3.21763e-07, No Iterations 0
ExecutionTime = 1.39 s  ClockTime = 1 s

Time = 0.0575

DICPCG:  Solving for T, Initial residual = 3.21763e-07, Final residual = 3.21763e-07, No Iterations 0
DICPCG:  Solving for T, Initial residual = 3.21763e-07, Final residual = 3.21763e-07, No Iterations 0
ExecutionTime = 1.39 s  ClockTime = 1 s

Time = 0.058

DICPCG:  Solving for T, Initial residual = 3.21763e-07, Final residual = 3.21763e-07, No Iterations 0
DICPCG:  Solving for T, Initial residual = 3.21763e-07, Final residual = 3.21763e-07, No Iterations 0
ExecutionTime = 1.4 s  ClockTime = 1 s

Time = 0.0585

DICPCG:  Solving for T, Initial residual = 3.21763e-07, Final residual = 3.21763e-07, No Iterations 0
DICPCG:  Solving for T, Initial residual = 3.21763e-07, Final residual = 3.21763e-07, No Iterations 0
ExecutionTime = 1.41 s  ClockTime = 1 s

Time = 0.059

DICPCG:  Solving for T, Initial residual = 3.21763e-07, Final residual = 3.21763e-07, No Iterations 0
DICPCG:  Solving for T, Initial residual = 3.21763e-07, Final residual = 3.21763e-07, No Iterations 0
ExecutionTime = 1.42 s  ClockTime = 1 s

Time = 0.0595

DICPCG:  Solving for T, Initial residual = 3.21763e-07, Final residual = 3.21763e-07, No Iterations 0
DICPCG:  Solving for T, Initial residual = 3.21763e-07, Final residual = 3.21763e-07, No Iterations 0
ExecutionTime = 1.42 s  ClockTime = 1 s

Time = 0.06

DICPCG:  Solving for T, Initial residual = 3.21763e-07, Final residual = 3.21763e-07, No Iterations 0
DICPCG:  Solving for T, Initial residual = 3.21763e-07, Final residual = 3.21763e-07, No Iterations 0
ExecutionTime = 1.43 s  ClockTime = 1 s

Time = 0.0605

DICPCG:  Solving for T, Initial residual = 3.21763e-07, Final residual = 3.21763e-07, No Iterations 0
DICPCG:  Solving for T, Initial residual = 3.21763e-07, Final residual = 3.21763e-07, No Iterations 0
ExecutionTime = 1.44 s  ClockTime = 1 s

Time = 0.061

DICPCG:  Solving for T, Initial residual = 3.21763e-07, Final residual = 3.21763e-07, No Iterations 0
DICPCG:  Solving for T, Initial residual = 3.21763e-07, Final residual = 3.21763e-07, No Iterations 0
ExecutionTime = 1.44 s  ClockTime = 1 s

Time = 0.0615

DICPCG:  Solving for T, Initial residual = 3.21763e-07, Final residual = 3.21763e-07, No Iterations 0
DICPCG:  Solving for T, Initial residual = 3.21763e-07, Final residual = 3.21763e-07, No Iterations 0
ExecutionTime = 1.45 s  ClockTime = 1 s

Time = 0.062

DICPCG:  Solving for T, Initial residual = 3.21763e-07, Final residual = 3.21763e-07, No Iterations 0
DICPCG:  Solving for T, Initial residual = 3.21763e-07, Final residual = 3.21763e-07, No Iterations 0
ExecutionTime = 1.46 s  ClockTime = 1 s

Time = 0.0625

DICPCG:  Solving for T, Initial residual = 3.21763e-07, Final residual = 3.21763e-07, No Iterations 0
DICPCG:  Solving for T, Initial residual = 3.21763e-07, Final residual = 3.21763e-07, No Iterations 0
ExecutionTime = 1.47 s  ClockTime = 1 s

Time = 0.063

DICPCG:  Solving for T, Initial residual = 3.21763e-07, Final residual = 3.21763e-07, No Iterations 0
DICPCG:  Solving for T, Initial residual = 3.21763e-07, Final residual = 3.21763e-07, No Iterations 0
ExecutionTime = 1.47 s  ClockTime = 1 s

Time = 0.0635

DICPCG:  Solving for T, Initial residual = 3.21763e-07, Final residual = 3.21763e-07, No Iterations 0
DICPCG:  Solving for T, Initial residual = 3.21763e-07, Final residual = 3.21763e-07, No Iterations 0
ExecutionTime = 1.48 s  ClockTime = 1 s

Time = 0.064

DICPCG:  Solving for T, Initial residual = 3.21763e-07, Final residual = 3.21763e-07, No Iterations 0
DICPCG:  Solving for T, Initial residual = 3.21763e-07, Final residual = 3.21763e-07, No Iterations 0
ExecutionTime = 1.48 s  ClockTime = 1 s

Time = 0.0645

DICPCG:  Solving for T, Initial residual = 3.21763e-07, Final residual = 3.21763e-07, No Iterations 0
DICPCG:  Solving for T, Initial residual = 3.21763e-07, Final residual = 3.21763e-07, No Iterations 0
ExecutionTime = 1.49 s  ClockTime = 1 s

Time = 0.065

DICPCG:  Solving for T, Initial residual = 3.21763e-07, Final residual = 3.21763e-07, No Iterations 0
DICPCG:  Solving for T, Initial residual = 3.21763e-07, Final residual = 3.21763e-07, No Iterations 0
ExecutionTime = 1.5 s  ClockTime = 1 s

Time = 0.0655

DICPCG:  Solving for T, Initial residual = 3.21763e-07, Final residual = 3.21763e-07, No Iterations 0
DICPCG:  Solving for T, Initial residual = 3.21763e-07, Final residual = 3.21763e-07, No Iterations 0
ExecutionTime = 1.51 s  ClockTime = 1 s

Time = 0.066

DICPCG:  Solving for T, Initial residual = 3.21763e-07, Final residual = 3.21763e-07, No Iterations 0
DICPCG:  Solving for T, Initial residual = 3.21763e-07, Final residual = 3.21763e-07, No Iterations 0
ExecutionTime = 1.51 s  ClockTime = 1 s

Time = 0.0665

DICPCG:  Solving for T, Initial residual = 3.21763e-07, Final residual = 3.21763e-07, No Iterations 0
DICPCG:  Solving for T, Initial residual = 3.21763e-07, Final residual = 3.21763e-07, No Iterations 0
ExecutionTime = 1.52 s  ClockTime = 1 s

Time = 0.067

DICPCG:  Solving for T, Initial residual = 3.21763e-07, Final residual = 3.21763e-07, No Iterations 0
DICPCG:  Solving for T, Initial residual = 3.21763e-07, Final residual = 3.21763e-07, No Iterations 0
ExecutionTime = 1.52 s  ClockTime = 1 s

Time = 0.0675

DICPCG:  Solving for T, Initial residual = 3.21763e-07, Final residual = 3.21763e-07, No Iterations 0
DICPCG:  Solving for T, Initial residual = 3.21763e-07, Final residual = 3.21763e-07, No Iterations 0
ExecutionTime = 1.53 s  ClockTime = 1 s

Time = 0.068

DICPCG:  Solving for T, Initial residual = 3.21763e-07, Final residual = 3.21763e-07, No Iterations 0
DICPCG:  Solving for T, Initial residual = 3.21763e-07, Final residual = 3.21763e-07, No Iterations 0
ExecutionTime = 1.54 s  ClockTime = 1 s

Time = 0.0685

DICPCG:  Solving for T, Initial residual = 3.21763e-07, Final residual = 3.21763e-07, No Iterations 0
DICPCG:  Solving for T, Initial residual = 3.21763e-07, Final residual = 3.21763e-07, No Iterations 0
ExecutionTime = 1.55 s  ClockTime = 1 s

Time = 0.069

DICPCG:  Solving for T, Initial residual = 3.21763e-07, Final residual = 3.21763e-07, No Iterations 0
DICPCG:  Solving for T, Initial residual = 3.21763e-07, Final residual = 3.21763e-07, No Iterations 0
ExecutionTime = 1.55 s  ClockTime = 1 s

Time = 0.0695

DICPCG:  Solving for T, Initial residual = 3.21763e-07, Final residual = 3.21763e-07, No Iterations 0
DICPCG:  Solving for T, Initial residual = 3.21763e-07, Final residual = 3.21763e-07, No Iterations 0
ExecutionTime = 1.56 s  ClockTime = 1 s

Time = 0.07

DICPCG:  Solving for T, Initial residual = 3.21763e-07, Final residual = 3.21763e-07, No Iterations 0
DICPCG:  Solving for T, Initial residual = 3.21763e-07, Final residual = 3.21763e-07, No Iterations 0
ExecutionTime = 1.56 s  ClockTime = 1 s

Time = 0.0705

DICPCG:  Solving for T, Initial residual = 3.21763e-07, Final residual = 3.21763e-07, No Iterations 0
DICPCG:  Solving for T, Initial residual = 3.21763e-07, Final residual = 3.21763e-07, No Iterations 0
ExecutionTime = 1.57 s  ClockTime = 1 s

Time = 0.071

DICPCG:  Solving for T, Initial residual = 3.21763e-07, Final residual = 3.21763e-07, No Iterations 0
DICPCG:  Solving for T, Initial residual = 3.21763e-07, Final residual = 3.21763e-07, No Iterations 0
ExecutionTime = 1.58 s  ClockTime = 1 s

Time = 0.0715

DICPCG:  Solving for T, Initial residual = 3.21763e-07, Final residual = 3.21763e-07, No Iterations 0
DICPCG:  Solving for T, Initial residual = 3.21763e-07, Final residual = 3.21763e-07, No Iterations 0
ExecutionTime = 1.59 s  ClockTime = 1 s

Time = 0.072

DICPCG:  Solving for T, Initial residual = 3.21763e-07, Final residual = 3.21763e-07, No Iterations 0
DICPCG:  Solving for T, Initial residual = 3.21763e-07, Final residual = 3.21763e-07, No Iterations 0
ExecutionTime = 1.59 s  ClockTime = 1 s

Time = 0.0725

DICPCG:  Solving for T, Initial residual = 3.21763e-07, Final residual = 3.21763e-07, No Iterations 0
DICPCG:  Solving for T, Initial residual = 3.21763e-07, Final residual = 3.21763e-07, No Iterations 0
ExecutionTime = 1.6 s  ClockTime = 1 s

Time = 0.073

DICPCG:  Solving for T, Initial residual = 3.21763e-07, Final residual = 3.21763e-07, No Iterations 0
DICPCG:  Solving for T, Initial residual = 3.21763e-07, Final residual = 3.21763e-07, No Iterations 0
ExecutionTime = 1.61 s  ClockTime = 1 s

Time = 0.0735

DICPCG:  Solving for T, Initial residual = 3.21763e-07, Final residual = 3.21763e-07, No Iterations 0
DICPCG:  Solving for T, Initial residual = 3.21763e-07, Final residual = 3.21763e-07, No Iterations 0
ExecutionTime = 1.62 s  ClockTime = 1 s

Time = 0.074

DICPCG:  Solving for T, Initial residual = 3.21763e-07, Final residual = 3.21763e-07, No Iterations 0
DICPCG:  Solving for T, Initial residual = 3.21763e-07, Final residual = 3.21763e-07, No Iterations 0
ExecutionTime = 1.62 s  ClockTime = 1 s

Time = 0.0745

DICPCG:  Solving for T, Initial residual = 3.21763e-07, Final residual = 3.21763e-07, No Iterations 0
DICPCG:  Solving for T, Initial residual = 3.21763e-07, Final residual = 3.21763e-07, No Iterations 0
ExecutionTime = 1.63 s  ClockTime = 1 s

Time = 0.075

DICPCG:  Solving for T, Initial residual = 3.21763e-07, Final residual = 3.21763e-07, No Iterations 0
DICPCG:  Solving for T, Initial residual = 3.21763e-07, Final residual = 3.21763e-07, No Iterations 0
ExecutionTime = 1.64 s  ClockTime = 1 s

Time = 0.0755

DICPCG:  Solving for T, Initial residual = 3.21763e-07, Final residual = 3.21763e-07, No Iterations 0
DICPCG:  Solving for T, Initial residual = 3.21763e-07, Final residual = 3.21763e-07, No Iterations 0
ExecutionTime = 1.65 s  ClockTime = 1 s

Time = 0.076

DICPCG:  Solving for T, Initial residual = 3.21763e-07, Final residual = 3.21763e-07, No Iterations 0
DICPCG:  Solving for T, Initial residual = 3.21763e-07, Final residual = 3.21763e-07, No Iterations 0
ExecutionTime = 1.65 s  ClockTime = 1 s

Time = 0.0765

DICPCG:  Solving for T, Initial residual = 3.21763e-07, Final residual = 3.21763e-07, No Iterations 0
DICPCG:  Solving for T, Initial residual = 3.21763e-07, Final residual = 3.21763e-07, No Iterations 0
ExecutionTime = 1.66 s  ClockTime = 1 s

Time = 0.077

DICPCG:  Solving for T, Initial residual = 3.21763e-07, Final residual = 3.21763e-07, No Iterations 0
DICPCG:  Solving for T, Initial residual = 3.21763e-07, Final residual = 3.21763e-07, No Iterations 0
ExecutionTime = 1.66 s  ClockTime = 1 s

Time = 0.0775

DICPCG:  Solving for T, Initial residual = 3.21763e-07, Final residual = 3.21763e-07, No Iterations 0
DICPCG:  Solving for T, Initial residual = 3.21763e-07, Final residual = 3.21763e-07, No Iterations 0
ExecutionTime = 1.67 s  ClockTime = 1 s

Time = 0.078

DICPCG:  Solving for T, Initial residual = 3.21763e-07, Final residual = 3.21763e-07, No Iterations 0
DICPCG:  Solving for T, Initial residual = 3.21763e-07, Final residual = 3.21763e-07, No Iterations 0
ExecutionTime = 1.68 s  ClockTime = 1 s

Time = 0.0785

DICPCG:  Solving for T, Initial residual = 3.21763e-07, Final residual = 3.21763e-07, No Iterations 0
DICPCG:  Solving for T, Initial residual = 3.21763e-07, Final residual = 3.21763e-07, No Iterations 0
ExecutionTime = 1.69 s  ClockTime = 1 s

Time = 0.079

DICPCG:  Solving for T, Initial residual = 3.21763e-07, Final residual = 3.21763e-07, No Iterations 0
DICPCG:  Solving for T, Initial residual = 3.21763e-07, Final residual = 3.21763e-07, No Iterations 0
ExecutionTime = 1.69 s  ClockTime = 1 s

Time = 0.0795

DICPCG:  Solving for T, Initial residual = 3.21763e-07, Final residual = 3.21763e-07, No Iterations 0
DICPCG:  Solving for T, Initial residual = 3.21763e-07, Final residual = 3.21763e-07, No Iterations 0
ExecutionTime = 1.7 s  ClockTime = 1 s

Time = 0.08

DICPCG:  Solving for T, Initial residual = 3.21763e-07, Final residual = 3.21763e-07, No Iterations 0
DICPCG:  Solving for T, Initial residual = 3.21763e-07, Final residual = 3.21763e-07, No Iterations 0
ExecutionTime = 1.7 s  ClockTime = 1 s

Time = 0.0805

DICPCG:  Solving for T, Initial residual = 3.21763e-07, Final residual = 3.21763e-07, No Iterations 0
DICPCG:  Solving for T, Initial residual = 3.21763e-07, Final residual = 3.21763e-07, No Iterations 0
ExecutionTime = 1.71 s  ClockTime = 1 s

Time = 0.081

DICPCG:  Solving for T, Initial residual = 3.21763e-07, Final residual = 3.21763e-07, No Iterations 0
DICPCG:  Solving for T, Initial residual = 3.21763e-07, Final residual = 3.21763e-07, No Iterations 0
ExecutionTime = 1.72 s  ClockTime = 1 s

Time = 0.0815

DICPCG:  Solving for T, Initial residual = 3.21763e-07, Final residual = 3.21763e-07, No Iterations 0
DICPCG:  Solving for T, Initial residual = 3.21763e-07, Final residual = 3.21763e-07, No Iterations 0
ExecutionTime = 1.72 s  ClockTime = 1 s

Time = 0.082

DICPCG:  Solving for T, Initial residual = 3.21763e-07, Final residual = 3.21763e-07, No Iterations 0
DICPCG:  Solving for T, Initial residual = 3.21763e-07, Final residual = 3.21763e-07, No Iterations 0
ExecutionTime = 1.73 s  ClockTime = 1 s

Time = 0.0825

DICPCG:  Solving for T, Initial residual = 3.21763e-07, Final residual = 3.21763e-07, No Iterations 0
DICPCG:  Solving for T, Initial residual = 3.21763e-07, Final residual = 3.21763e-07, No Iterations 0
ExecutionTime = 1.74 s  ClockTime = 1 s

Time = 0.083

DICPCG:  Solving for T, Initial residual = 3.21763e-07, Final residual = 3.21763e-07, No Iterations 0
DICPCG:  Solving for T, Initial residual = 3.21763e-07, Final residual = 3.21763e-07, No Iterations 0
ExecutionTime = 1.75 s  ClockTime = 1 s

Time = 0.0835

DICPCG:  Solving for T, Initial residual = 3.21763e-07, Final residual = 3.21763e-07, No Iterations 0
DICPCG:  Solving for T, Initial residual = 3.21763e-07, Final residual = 3.21763e-07, No Iterations 0
ExecutionTime = 1.75 s  ClockTime = 1 s

Time = 0.084

DICPCG:  Solving for T, Initial residual = 3.21763e-07, Final residual = 3.21763e-07, No Iterations 0
DICPCG:  Solving for T, Initial residual = 3.21763e-07, Final residual = 3.21763e-07, No Iterations 0
ExecutionTime = 1.76 s  ClockTime = 1 s

Time = 0.0845

DICPCG:  Solving for T, Initial residual = 3.21763e-07, Final residual = 3.21763e-07, No Iterations 0
DICPCG:  Solving for T, Initial residual = 3.21763e-07, Final residual = 3.21763e-07, No Iterations 0
ExecutionTime = 1.76 s  ClockTime = 1 s

Time = 0.085

DICPCG:  Solving for T, Initial residual = 3.21763e-07, Final residual = 3.21763e-07, No Iterations 0
DICPCG:  Solving for T, Initial residual = 3.21763e-07, Final residual = 3.21763e-07, No Iterations 0
ExecutionTime = 1.77 s  ClockTime = 1 s

Time = 0.0855

DICPCG:  Solving for T, Initial residual = 3.21763e-07, Final residual = 3.21763e-07, No Iterations 0
DICPCG:  Solving for T, Initial residual = 3.21763e-07, Final residual = 3.21763e-07, No Iterations 0
ExecutionTime = 1.78 s  ClockTime = 1 s

Time = 0.086

DICPCG:  Solving for T, Initial residual = 3.21763e-07, Final residual = 3.21763e-07, No Iterations 0
DICPCG:  Solving for T, Initial residual = 3.21763e-07, Final residual = 3.21763e-07, No Iterations 0
ExecutionTime = 1.79 s  ClockTime = 1 s

Time = 0.0865

DICPCG:  Solving for T, Initial residual = 3.21763e-07, Final residual = 3.21763e-07, No Iterations 0
DICPCG:  Solving for T, Initial residual = 3.21763e-07, Final residual = 3.21763e-07, No Iterations 0
ExecutionTime = 1.79 s  ClockTime = 1 s

Time = 0.087

DICPCG:  Solving for T, Initial residual = 3.21763e-07, Final residual = 3.21763e-07, No Iterations 0
DICPCG:  Solving for T, Initial residual = 3.21763e-07, Final residual = 3.21763e-07, No Iterations 0
ExecutionTime = 1.8 s  ClockTime = 1 s

Time = 0.0875

DICPCG:  Solving for T, Initial residual = 3.21763e-07, Final residual = 3.21763e-07, No Iterations 0
DICPCG:  Solving for T, Initial residual = 3.21763e-07, Final residual = 3.21763e-07, No Iterations 0
ExecutionTime = 1.81 s  ClockTime = 1 s

Time = 0.088

DICPCG:  Solving for T, Initial residual = 3.21763e-07, Final residual = 3.21763e-07, No Iterations 0
DICPCG:  Solving for T, Initial residual = 3.21763e-07, Final residual = 3.21763e-07, No Iterations 0
ExecutionTime = 1.81 s  ClockTime = 1 s

Time = 0.0885

DICPCG:  Solving for T, Initial residual = 3.21763e-07, Final residual = 3.21763e-07, No Iterations 0
DICPCG:  Solving for T, Initial residual = 3.21763e-07, Final residual = 3.21763e-07, No Iterations 0
ExecutionTime = 1.82 s  ClockTime = 1 s

Time = 0.089

DICPCG:  Solving for T, Initial residual = 3.21763e-07, Final residual = 3.21763e-07, No Iterations 0
DICPCG:  Solving for T, Initial residual = 3.21763e-07, Final residual = 3.21763e-07, No Iterations 0
ExecutionTime = 1.83 s  ClockTime = 1 s

Time = 0.0895

DICPCG:  Solving for T, Initial residual = 3.21763e-07, Final residual = 3.21763e-07, No Iterations 0
DICPCG:  Solving for T, Initial residual = 3.21763e-07, Final residual = 3.21763e-07, No Iterations 0
ExecutionTime = 1.84 s  ClockTime = 1 s

Time = 0.09

DICPCG:  Solving for T, Initial residual = 3.21763e-07, Final residual = 3.21763e-07, No Iterations 0
DICPCG:  Solving for T, Initial residual = 3.21763e-07, Final residual = 3.21763e-07, No Iterations 0
ExecutionTime = 1.85 s  ClockTime = 1 s

Time = 0.0905

DICPCG:  Solving for T, Initial residual = 3.21763e-07, Final residual = 3.21763e-07, No Iterations 0
DICPCG:  Solving for T, Initial residual = 3.21763e-07, Final residual = 3.21763e-07, No Iterations 0
ExecutionTime = 1.85 s  ClockTime = 1 s

Time = 0.091

DICPCG:  Solving for T, Initial residual = 3.21763e-07, Final residual = 3.21763e-07, No Iterations 0
DICPCG:  Solving for T, Initial residual = 3.21763e-07, Final residual = 3.21763e-07, No Iterations 0
ExecutionTime = 1.86 s  ClockTime = 1 s

Time = 0.0915

DICPCG:  Solving for T, Initial residual = 3.21763e-07, Final residual = 3.21763e-07, No Iterations 0
DICPCG:  Solving for T, Initial residual = 3.21763e-07, Final residual = 3.21763e-07, No Iterations 0
ExecutionTime = 1.87 s  ClockTime = 1 s

Time = 0.092

DICPCG:  Solving for T, Initial residual = 3.21763e-07, Final residual = 3.21763e-07, No Iterations 0
DICPCG:  Solving for T, Initial residual = 3.21763e-07, Final residual = 3.21763e-07, No Iterations 0
ExecutionTime = 1.88 s  ClockTime = 1 s

Time = 0.0925

DICPCG:  Solving for T, Initial residual = 3.21763e-07, Final residual = 3.21763e-07, No Iterations 0
DICPCG:  Solving for T, Initial residual = 3.21763e-07, Final residual = 3.21763e-07, No Iterations 0
ExecutionTime = 1.89 s  ClockTime = 1 s

Time = 0.093

DICPCG:  Solving for T, Initial residual = 3.21763e-07, Final residual = 3.21763e-07, No Iterations 0
DICPCG:  Solving for T, Initial residual = 3.21763e-07, Final residual = 3.21763e-07, No Iterations 0
ExecutionTime = 1.89 s  ClockTime = 1 s

Time = 0.0935

DICPCG:  Solving for T, Initial residual = 3.21763e-07, Final residual = 3.21763e-07, No Iterations 0
DICPCG:  Solving for T, Initial residual = 3.21763e-07, Final residual = 3.21763e-07, No Iterations 0
ExecutionTime = 1.9 s  ClockTime = 2 s

Time = 0.094

DICPCG:  Solving for T, Initial residual = 3.21763e-07, Final residual = 3.21763e-07, No Iterations 0
DICPCG:  Solving for T, Initial residual = 3.21763e-07, Final residual = 3.21763e-07, No Iterations 0
ExecutionTime = 1.91 s  ClockTime = 2 s

Time = 0.0945

DICPCG:  Solving for T, Initial residual = 3.21763e-07, Final residual = 3.21763e-07, No Iterations 0
DICPCG:  Solving for T, Initial residual = 3.21763e-07, Final residual = 3.21763e-07, No Iterations 0
ExecutionTime = 1.91 s  ClockTime = 2 s

Time = 0.095

DICPCG:  Solving for T, Initial residual = 3.21763e-07, Final residual = 3.21763e-07, No Iterations 0
DICPCG:  Solving for T, Initial residual = 3.21763e-07, Final residual = 3.21763e-07, No Iterations 0
ExecutionTime = 1.92 s  ClockTime = 2 s

Time = 0.0955

DICPCG:  Solving for T, Initial residual = 3.21763e-07, Final residual = 3.21763e-07, No Iterations 0
DICPCG:  Solving for T, Initial residual = 3.21763e-07, Final residual = 3.21763e-07, No Iterations 0
ExecutionTime = 1.93 s  ClockTime = 2 s

Time = 0.096

DICPCG:  Solving for T, Initial residual = 3.21763e-07, Final residual = 3.21763e-07, No Iterations 0
DICPCG:  Solving for T, Initial residual = 3.21763e-07, Final residual = 3.21763e-07, No Iterations 0
ExecutionTime = 1.93 s  ClockTime = 2 s

Time = 0.0965

DICPCG:  Solving for T, Initial residual = 3.21763e-07, Final residual = 3.21763e-07, No Iterations 0
DICPCG:  Solving for T, Initial residual = 3.21763e-07, Final residual = 3.21763e-07, No Iterations 0
ExecutionTime = 1.94 s  ClockTime = 2 s

Time = 0.097

DICPCG:  Solving for T, Initial residual = 3.21763e-07, Final residual = 3.21763e-07, No Iterations 0
DICPCG:  Solving for T, Initial residual = 3.21763e-07, Final residual = 3.21763e-07, No Iterations 0
ExecutionTime = 1.95 s  ClockTime = 2 s

Time = 0.0975

DICPCG:  Solving for T, Initial residual = 3.21763e-07, Final residual = 3.21763e-07, No Iterations 0
DICPCG:  Solving for T, Initial residual = 3.21763e-07, Final residual = 3.21763e-07, No Iterations 0
ExecutionTime = 1.95 s  ClockTime = 2 s

Time = 0.098

DICPCG:  Solving for T, Initial residual = 3.21763e-07, Final residual = 3.21763e-07, No Iterations 0
DICPCG:  Solving for T, Initial residual = 3.21763e-07, Final residual = 3.21763e-07, No Iterations 0
ExecutionTime = 1.96 s  ClockTime = 2 s

Time = 0.0985

DICPCG:  Solving for T, Initial residual = 3.21763e-07, Final residual = 3.21763e-07, No Iterations 0
DICPCG:  Solving for T, Initial residual = 3.21763e-07, Final residual = 3.21763e-07, No Iterations 0
ExecutionTime = 1.97 s  ClockTime = 2 s

Time = 0.099

DICPCG:  Solving for T, Initial residual = 3.21763e-07, Final residual = 3.21763e-07, No Iterations 0
DICPCG:  Solving for T, Initial residual = 3.21763e-07, Final residual = 3.21763e-07, No Iterations 0
ExecutionTime = 1.97 s  ClockTime = 2 s

Time = 0.0995

DICPCG:  Solving for T, Initial residual = 3.21763e-07, Final residual = 3.21763e-07, No Iterations 0
DICPCG:  Solving for T, Initial residual = 3.21763e-07, Final residual = 3.21763e-07, No Iterations 0
ExecutionTime = 1.98 s  ClockTime = 2 s

Time = 0.1

DICPCG:  Solving for T, Initial residual = 3.21763e-07, Final residual = 3.21763e-07, No Iterations 0
DICPCG:  Solving for T, Initial residual = 3.21763e-07, Final residual = 3.21763e-07, No Iterations 0
ExecutionTime = 2.11 s  ClockTime = 2 s

Time = 0.1005

DICPCG:  Solving for T, Initial residual = 3.21763e-07, Final residual = 3.21763e-07, No Iterations 0
DICPCG:  Solving for T, Initial residual = 3.21763e-07, Final residual = 3.21763e-07, No Iterations 0
ExecutionTime = 2.11 s  ClockTime = 2 s

Time = 0.101

DICPCG:  Solving for T, Initial residual = 3.21763e-07, Final residual = 3.21763e-07, No Iterations 0
DICPCG:  Solving for T, Initial residual = 3.21763e-07, Final residual = 3.21763e-07, No Iterations 0
ExecutionTime = 2.12 s  ClockTime = 2 s

Time = 0.1015

DICPCG:  Solving for T, Initial residual = 3.21763e-07, Final residual = 3.21763e-07, No Iterations 0
DICPCG:  Solving for T, Initial residual = 3.21763e-07, Final residual = 3.21763e-07, No Iterations 0
ExecutionTime = 2.13 s  ClockTime = 2 s

Time = 0.102

DICPCG:  Solving for T, Initial residual = 3.21763e-07, Final residual = 3.21763e-07, No Iterations 0
DICPCG:  Solving for T, Initial residual = 3.21763e-07, Final residual = 3.21763e-07, No Iterations 0
ExecutionTime = 2.13 s  ClockTime = 2 s

Time = 0.1025

DICPCG:  Solving for T, Initial residual = 3.21763e-07, Final residual = 3.21763e-07, No Iterations 0
DICPCG:  Solving for T, Initial residual = 3.21763e-07, Final residual = 3.21763e-07, No Iterations 0
ExecutionTime = 2.14 s  ClockTime = 2 s

Time = 0.103

DICPCG:  Solving for T, Initial residual = 3.21763e-07, Final residual = 3.21763e-07, No Iterations 0
DICPCG:  Solving for T, Initial residual = 3.21763e-07, Final residual = 3.21763e-07, No Iterations 0
ExecutionTime = 2.15 s  ClockTime = 2 s

Time = 0.1035

DICPCG:  Solving for T, Initial residual = 3.21763e-07, Final residual = 3.21763e-07, No Iterations 0
DICPCG:  Solving for T, Initial residual = 3.21763e-07, Final residual = 3.21763e-07, No Iterations 0
ExecutionTime = 2.15 s  ClockTime = 2 s

Time = 0.104

DICPCG:  Solving for T, Initial residual = 3.21763e-07, Final residual = 3.21763e-07, No Iterations 0
DICPCG:  Solving for T, Initial residual = 3.21763e-07, Final residual = 3.21763e-07, No Iterations 0
ExecutionTime = 2.16 s  ClockTime = 2 s

Time = 0.1045

DICPCG:  Solving for T, Initial residual = 3.21763e-07, Final residual = 3.21763e-07, No Iterations 0
DICPCG:  Solving for T, Initial residual = 3.21763e-07, Final residual = 3.21763e-07, No Iterations 0
ExecutionTime = 2.17 s  ClockTime = 2 s

Time = 0.105

DICPCG:  Solving for T, Initial residual = 3.21763e-07, Final residual = 3.21763e-07, No Iterations 0
DICPCG:  Solving for T, Initial residual = 3.21763e-07, Final residual = 3.21763e-07, No Iterations 0
ExecutionTime = 2.17 s  ClockTime = 2 s

Time = 0.1055

DICPCG:  Solving for T, Initial residual = 3.21763e-07, Final residual = 3.21763e-07, No Iterations 0
DICPCG:  Solving for T, Initial residual = 3.21763e-07, Final residual = 3.21763e-07, No Iterations 0
ExecutionTime = 2.18 s  ClockTime = 2 s

Time = 0.106

DICPCG:  Solving for T, Initial residual = 3.21763e-07, Final residual = 3.21763e-07, No Iterations 0
DICPCG:  Solving for T, Initial residual = 3.21763e-07, Final residual = 3.21763e-07, No Iterations 0
ExecutionTime = 2.19 s  ClockTime = 2 s

Time = 0.1065

DICPCG:  Solving for T, Initial residual = 3.21763e-07, Final residual = 3.21763e-07, No Iterations 0
DICPCG:  Solving for T, Initial residual = 3.21763e-07, Final residual = 3.21763e-07, No Iterations 0
ExecutionTime = 2.19 s  ClockTime = 2 s

Time = 0.107

DICPCG:  Solving for T, Initial residual = 3.21763e-07, Final residual = 3.21763e-07, No Iterations 0
DICPCG:  Solving for T, Initial residual = 3.21763e-07, Final residual = 3.21763e-07, No Iterations 0
ExecutionTime = 2.2 s  ClockTime = 2 s

Time = 0.1075

DICPCG:  Solving for T, Initial residual = 3.21763e-07, Final residual = 3.21763e-07, No Iterations 0
DICPCG:  Solving for T, Initial residual = 3.21763e-07, Final residual = 3.21763e-07, No Iterations 0
ExecutionTime = 2.21 s  ClockTime = 2 s

Time = 0.108

DICPCG:  Solving for T, Initial residual = 3.21763e-07, Final residual = 3.21763e-07, No Iterations 0
DICPCG:  Solving for T, Initial residual = 3.21763e-07, Final residual = 3.21763e-07, No Iterations 0
ExecutionTime = 2.21 s  ClockTime = 2 s

Time = 0.1085

DICPCG:  Solving for T, Initial residual = 3.21763e-07, Final residual = 3.21763e-07, No Iterations 0
DICPCG:  Solving for T, Initial residual = 3.21763e-07, Final residual = 3.21763e-07, No Iterations 0
ExecutionTime = 2.22 s  ClockTime = 2 s

Time = 0.109

DICPCG:  Solving for T, Initial residual = 3.21763e-07, Final residual = 3.21763e-07, No Iterations 0
DICPCG:  Solving for T, Initial residual = 3.21763e-07, Final residual = 3.21763e-07, No Iterations 0
ExecutionTime = 2.22 s  ClockTime = 2 s

Time = 0.1095

DICPCG:  Solving for T, Initial residual = 3.21763e-07, Final residual = 3.21763e-07, No Iterations 0
DICPCG:  Solving for T, Initial residual = 3.21763e-07, Final residual = 3.21763e-07, No Iterations 0
ExecutionTime = 2.23 s  ClockTime = 2 s

Time = 0.11

DICPCG:  Solving for T, Initial residual = 3.21763e-07, Final residual = 3.21763e-07, No Iterations 0
DICPCG:  Solving for T, Initial residual = 3.21763e-07, Final residual = 3.21763e-07, No Iterations 0
ExecutionTime = 2.24 s  ClockTime = 2 s

Time = 0.1105

DICPCG:  Solving for T, Initial residual = 3.21763e-07, Final residual = 3.21763e-07, No Iterations 0
DICPCG:  Solving for T, Initial residual = 3.21763e-07, Final residual = 3.21763e-07, No Iterations 0
ExecutionTime = 2.25 s  ClockTime = 2 s

Time = 0.111

DICPCG:  Solving for T, Initial residual = 3.21763e-07, Final residual = 3.21763e-07, No Iterations 0
DICPCG:  Solving for T, Initial residual = 3.21763e-07, Final residual = 3.21763e-07, No Iterations 0
ExecutionTime = 2.25 s  ClockTime = 2 s

Time = 0.1115

DICPCG:  Solving for T, Initial residual = 3.21763e-07, Final residual = 3.21763e-07, No Iterations 0
DICPCG:  Solving for T, Initial residual = 3.21763e-07, Final residual = 3.21763e-07, No Iterations 0
ExecutionTime = 2.26 s  ClockTime = 2 s

Time = 0.112

DICPCG:  Solving for T, Initial residual = 3.21763e-07, Final residual = 3.21763e-07, No Iterations 0
DICPCG:  Solving for T, Initial residual = 3.21763e-07, Final residual = 3.21763e-07, No Iterations 0
ExecutionTime = 2.27 s  ClockTime = 2 s

Time = 0.1125

DICPCG:  Solving for T, Initial residual = 3.21763e-07, Final residual = 3.21763e-07, No Iterations 0
DICPCG:  Solving for T, Initial residual = 3.21763e-07, Final residual = 3.21763e-07, No Iterations 0
ExecutionTime = 2.27 s  ClockTime = 2 s

Time = 0.113

DICPCG:  Solving for T, Initial residual = 3.21763e-07, Final residual = 3.21763e-07, No Iterations 0
DICPCG:  Solving for T, Initial residual = 3.21763e-07, Final residual = 3.21763e-07, No Iterations 0
ExecutionTime = 2.28 s  ClockTime = 2 s

Time = 0.1135

DICPCG:  Solving for T, Initial residual = 3.21763e-07, Final residual = 3.21763e-07, No Iterations 0
DICPCG:  Solving for T, Initial residual = 3.21763e-07, Final residual = 3.21763e-07, No Iterations 0
ExecutionTime = 2.28 s  ClockTime = 2 s

Time = 0.114

DICPCG:  Solving for T, Initial residual = 3.21763e-07, Final residual = 3.21763e-07, No Iterations 0
DICPCG:  Solving for T, Initial residual = 3.21763e-07, Final residual = 3.21763e-07, No Iterations 0
ExecutionTime = 2.29 s  ClockTime = 2 s

Time = 0.1145

DICPCG:  Solving for T, Initial residual = 3.21763e-07, Final residual = 3.21763e-07, No Iterations 0
DICPCG:  Solving for T, Initial residual = 3.21763e-07, Final residual = 3.21763e-07, No Iterations 0
ExecutionTime = 2.3 s  ClockTime = 2 s

Time = 0.115

DICPCG:  Solving for T, Initial residual = 3.21763e-07, Final residual = 3.21763e-07, No Iterations 0
DICPCG:  Solving for T, Initial residual = 3.21763e-07, Final residual = 3.21763e-07, No Iterations 0
ExecutionTime = 2.31 s  ClockTime = 2 s

Time = 0.1155

DICPCG:  Solving for T, Initial residual = 3.21763e-07, Final residual = 3.21763e-07, No Iterations 0
DICPCG:  Solving for T, Initial residual = 3.21763e-07, Final residual = 3.21763e-07, No Iterations 0
ExecutionTime = 2.32 s  ClockTime = 2 s

Time = 0.116

DICPCG:  Solving for T, Initial residual = 3.21763e-07, Final residual = 3.21763e-07, No Iterations 0
DICPCG:  Solving for T, Initial residual = 3.21763e-07, Final residual = 3.21763e-07, No Iterations 0
ExecutionTime = 2.32 s  ClockTime = 2 s

Time = 0.1165

DICPCG:  Solving for T, Initial residual = 3.21763e-07, Final residual = 3.21763e-07, No Iterations 0
DICPCG:  Solving for T, Initial residual = 3.21763e-07, Final residual = 3.21763e-07, No Iterations 0
ExecutionTime = 2.33 s  ClockTime = 2 s

Time = 0.117

DICPCG:  Solving for T, Initial residual = 3.21763e-07, Final residual = 3.21763e-07, No Iterations 0
DICPCG:  Solving for T, Initial residual = 3.21763e-07, Final residual = 3.21763e-07, No Iterations 0
ExecutionTime = 2.33 s  ClockTime = 2 s

Time = 0.1175

DICPCG:  Solving for T, Initial residual = 3.21763e-07, Final residual = 3.21763e-07, No Iterations 0
DICPCG:  Solving for T, Initial residual = 3.21763e-07, Final residual = 3.21763e-07, No Iterations 0
ExecutionTime = 2.34 s  ClockTime = 2 s

Time = 0.118

DICPCG:  Solving for T, Initial residual = 3.21763e-07, Final residual = 3.21763e-07, No Iterations 0
DICPCG:  Solving for T, Initial residual = 3.21763e-07, Final residual = 3.21763e-07, No Iterations 0
ExecutionTime = 2.35 s  ClockTime = 2 s

Time = 0.1185

DICPCG:  Solving for T, Initial residual = 3.21763e-07, Final residual = 3.21763e-07, No Iterations 0
DICPCG:  Solving for T, Initial residual = 3.21763e-07, Final residual = 3.21763e-07, No Iterations 0
ExecutionTime = 2.36 s  ClockTime = 2 s

Time = 0.119

DICPCG:  Solving for T, Initial residual = 3.21763e-07, Final residual = 3.21763e-07, No Iterations 0
DICPCG:  Solving for T, Initial residual = 3.21763e-07, Final residual = 3.21763e-07, No Iterations 0
ExecutionTime = 2.36 s  ClockTime = 2 s

Time = 0.1195

DICPCG:  Solving for T, Initial residual = 3.21763e-07, Final residual = 3.21763e-07, No Iterations 0
DICPCG:  Solving for T, Initial residual = 3.21763e-07, Final residual = 3.21763e-07, No Iterations 0
ExecutionTime = 2.37 s  ClockTime = 2 s

Time = 0.12

DICPCG:  Solving for T, Initial residual = 3.21763e-07, Final residual = 3.21763e-07, No Iterations 0
DICPCG:  Solving for T, Initial residual = 3.21763e-07, Final residual = 3.21763e-07, No Iterations 0
ExecutionTime = 2.38 s  ClockTime = 2 s

Time = 0.1205

DICPCG:  Solving for T, Initial residual = 3.21763e-07, Final residual = 3.21763e-07, No Iterations 0
DICPCG:  Solving for T, Initial residual = 3.21763e-07, Final residual = 3.21763e-07, No Iterations 0
ExecutionTime = 2.39 s  ClockTime = 2 s

Time = 0.121

DICPCG:  Solving for T, Initial residual = 3.21763e-07, Final residual = 3.21763e-07, No Iterations 0
DICPCG:  Solving for T, Initial residual = 3.21763e-07, Final residual = 3.21763e-07, No Iterations 0
ExecutionTime = 2.4 s  ClockTime = 2 s

Time = 0.1215

DICPCG:  Solving for T, Initial residual = 3.21763e-07, Final residual = 3.21763e-07, No Iterations 0
DICPCG:  Solving for T, Initial residual = 3.21763e-07, Final residual = 3.21763e-07, No Iterations 0
ExecutionTime = 2.4 s  ClockTime = 2 s

Time = 0.122

DICPCG:  Solving for T, Initial residual = 3.21763e-07, Final residual = 3.21763e-07, No Iterations 0
DICPCG:  Solving for T, Initial residual = 3.21763e-07, Final residual = 3.21763e-07, No Iterations 0
ExecutionTime = 2.41 s  ClockTime = 2 s

Time = 0.1225

DICPCG:  Solving for T, Initial residual = 3.21763e-07, Final residual = 3.21763e-07, No Iterations 0
DICPCG:  Solving for T, Initial residual = 3.21763e-07, Final residual = 3.21763e-07, No Iterations 0
ExecutionTime = 2.42 s  ClockTime = 2 s

Time = 0.123

DICPCG:  Solving for T, Initial residual = 3.21763e-07, Final residual = 3.21763e-07, No Iterations 0
DICPCG:  Solving for T, Initial residual = 3.21763e-07, Final residual = 3.21763e-07, No Iterations 0
ExecutionTime = 2.43 s  ClockTime = 2 s

Time = 0.1235

DICPCG:  Solving for T, Initial residual = 3.21763e-07, Final residual = 3.21763e-07, No Iterations 0
DICPCG:  Solving for T, Initial residual = 3.21763e-07, Final residual = 3.21763e-07, No Iterations 0
ExecutionTime = 2.43 s  ClockTime = 2 s

Time = 0.124

DICPCG:  Solving for T, Initial residual = 3.21763e-07, Final residual = 3.21763e-07, No Iterations 0
DICPCG:  Solving for T, Initial residual = 3.21763e-07, Final residual = 3.21763e-07, No Iterations 0
ExecutionTime = 2.44 s  ClockTime = 2 s

Time = 0.1245

DICPCG:  Solving for T, Initial residual = 3.21763e-07, Final residual = 3.21763e-07, No Iterations 0
DICPCG:  Solving for T, Initial residual = 3.21763e-07, Final residual = 3.21763e-07, No Iterations 0
ExecutionTime = 2.44 s  ClockTime = 2 s

Time = 0.125

DICPCG:  Solving for T, Initial residual = 3.21763e-07, Final residual = 3.21763e-07, No Iterations 0
DICPCG:  Solving for T, Initial residual = 3.21763e-07, Final residual = 3.21763e-07, No Iterations 0
ExecutionTime = 2.45 s  ClockTime = 2 s

Time = 0.1255

DICPCG:  Solving for T, Initial residual = 3.21763e-07, Final residual = 3.21763e-07, No Iterations 0
DICPCG:  Solving for T, Initial residual = 3.21763e-07, Final residual = 3.21763e-07, No Iterations 0
ExecutionTime = 2.46 s  ClockTime = 2 s

Time = 0.126

DICPCG:  Solving for T, Initial residual = 3.21763e-07, Final residual = 3.21763e-07, No Iterations 0
DICPCG:  Solving for T, Initial residual = 3.21763e-07, Final residual = 3.21763e-07, No Iterations 0
ExecutionTime = 2.47 s  ClockTime = 2 s

Time = 0.1265

DICPCG:  Solving for T, Initial residual = 3.21763e-07, Final residual = 3.21763e-07, No Iterations 0
DICPCG:  Solving for T, Initial residual = 3.21763e-07, Final residual = 3.21763e-07, No Iterations 0
ExecutionTime = 2.47 s  ClockTime = 2 s

Time = 0.127

DICPCG:  Solving for T, Initial residual = 3.21763e-07, Final residual = 3.21763e-07, No Iterations 0
DICPCG:  Solving for T, Initial residual = 3.21763e-07, Final residual = 3.21763e-07, No Iterations 0
ExecutionTime = 2.48 s  ClockTime = 2 s

Time = 0.1275

DICPCG:  Solving for T, Initial residual = 3.21763e-07, Final residual = 3.21763e-07, No Iterations 0
DICPCG:  Solving for T, Initial residual = 3.21763e-07, Final residual = 3.21763e-07, No Iterations 0
ExecutionTime = 2.48 s  ClockTime = 2 s

Time = 0.128

DICPCG:  Solving for T, Initial residual = 3.21763e-07, Final residual = 3.21763e-07, No Iterations 0
DICPCG:  Solving for T, Initial residual = 3.21763e-07, Final residual = 3.21763e-07, No Iterations 0
ExecutionTime = 2.49 s  ClockTime = 2 s

Time = 0.1285

DICPCG:  Solving for T, Initial residual = 3.21763e-07, Final residual = 3.21763e-07, No Iterations 0
DICPCG:  Solving for T, Initial residual = 3.21763e-07, Final residual = 3.21763e-07, No Iterations 0
ExecutionTime = 2.5 s  ClockTime = 2 s

Time = 0.129

DICPCG:  Solving for T, Initial residual = 3.21763e-07, Final residual = 3.21763e-07, No Iterations 0
DICPCG:  Solving for T, Initial residual = 3.21763e-07, Final residual = 3.21763e-07, No Iterations 0
ExecutionTime = 2.5 s  ClockTime = 2 s

Time = 0.1295

DICPCG:  Solving for T, Initial residual = 3.21763e-07, Final residual = 3.21763e-07, No Iterations 0
DICPCG:  Solving for T, Initial residual = 3.21763e-07, Final residual = 3.21763e-07, No Iterations 0
ExecutionTime = 2.51 s  ClockTime = 2 s

Time = 0.13

DICPCG:  Solving for T, Initial residual = 3.21763e-07, Final residual = 3.21763e-07, No Iterations 0
DICPCG:  Solving for T, Initial residual = 3.21763e-07, Final residual = 3.21763e-07, No Iterations 0
ExecutionTime = 2.52 s  ClockTime = 2 s

Time = 0.1305

DICPCG:  Solving for T, Initial residual = 3.21763e-07, Final residual = 3.21763e-07, No Iterations 0
DICPCG:  Solving for T, Initial residual = 3.21763e-07, Final residual = 3.21763e-07, No Iterations 0
ExecutionTime = 2.52 s  ClockTime = 2 s

Time = 0.131

DICPCG:  Solving for T, Initial residual = 3.21763e-07, Final residual = 3.21763e-07, No Iterations 0
DICPCG:  Solving for T, Initial residual = 3.21763e-07, Final residual = 3.21763e-07, No Iterations 0
ExecutionTime = 2.53 s  ClockTime = 2 s

Time = 0.1315

DICPCG:  Solving for T, Initial residual = 3.21763e-07, Final residual = 3.21763e-07, No Iterations 0
DICPCG:  Solving for T, Initial residual = 3.21763e-07, Final residual = 3.21763e-07, No Iterations 0
ExecutionTime = 2.54 s  ClockTime = 2 s

Time = 0.132

DICPCG:  Solving for T, Initial residual = 3.21763e-07, Final residual = 3.21763e-07, No Iterations 0
DICPCG:  Solving for T, Initial residual = 3.21763e-07, Final residual = 3.21763e-07, No Iterations 0
ExecutionTime = 2.54 s  ClockTime = 2 s

Time = 0.1325

DICPCG:  Solving for T, Initial residual = 3.21763e-07, Final residual = 3.21763e-07, No Iterations 0
DICPCG:  Solving for T, Initial residual = 3.21763e-07, Final residual = 3.21763e-07, No Iterations 0
ExecutionTime = 2.55 s  ClockTime = 2 s

Time = 0.133

DICPCG:  Solving for T, Initial residual = 3.21763e-07, Final residual = 3.21763e-07, No Iterations 0
DICPCG:  Solving for T, Initial residual = 3.21763e-07, Final residual = 3.21763e-07, No Iterations 0
ExecutionTime = 2.57 s  ClockTime = 2 s

Time = 0.1335

DICPCG:  Solving for T, Initial residual = 3.21763e-07, Final residual = 3.21763e-07, No Iterations 0
DICPCG:  Solving for T, Initial residual = 3.21763e-07, Final residual = 3.21763e-07, No Iterations 0
ExecutionTime = 2.57 s  ClockTime = 2 s

Time = 0.134

DICPCG:  Solving for T, Initial residual = 3.21763e-07, Final residual = 3.21763e-07, No Iterations 0
DICPCG:  Solving for T, Initial residual = 3.21763e-07, Final residual = 3.21763e-07, No Iterations 0
ExecutionTime = 2.57 s  ClockTime = 2 s

Time = 0.1345

DICPCG:  Solving for T, Initial residual = 3.21763e-07, Final residual = 3.21763e-07, No Iterations 0
DICPCG:  Solving for T, Initial residual = 3.21763e-07, Final residual = 3.21763e-07, No Iterations 0
ExecutionTime = 2.58 s  ClockTime = 2 s

Time = 0.135

DICPCG:  Solving for T, Initial residual = 3.21763e-07, Final residual = 3.21763e-07, No Iterations 0
DICPCG:  Solving for T, Initial residual = 3.21763e-07, Final residual = 3.21763e-07, No Iterations 0
ExecutionTime = 2.59 s  ClockTime = 2 s

Time = 0.1355

DICPCG:  Solving for T, Initial residual = 3.21763e-07, Final residual = 3.21763e-07, No Iterations 0
DICPCG:  Solving for T, Initial residual = 3.21763e-07, Final residual = 3.21763e-07, No Iterations 0
ExecutionTime = 2.59 s  ClockTime = 2 s

Time = 0.136

DICPCG:  Solving for T, Initial residual = 3.21763e-07, Final residual = 3.21763e-07, No Iterations 0
DICPCG:  Solving for T, Initial residual = 3.21763e-07, Final residual = 3.21763e-07, No Iterations 0
ExecutionTime = 2.6 s  ClockTime = 2 s

Time = 0.1365

DICPCG:  Solving for T, Initial residual = 3.21763e-07, Final residual = 3.21763e-07, No Iterations 0
DICPCG:  Solving for T, Initial residual = 3.21763e-07, Final residual = 3.21763e-07, No Iterations 0
ExecutionTime = 2.6 s  ClockTime = 2 s

Time = 0.137

DICPCG:  Solving for T, Initial residual = 3.21763e-07, Final residual = 3.21763e-07, No Iterations 0
DICPCG:  Solving for T, Initial residual = 3.21763e-07, Final residual = 3.21763e-07, No Iterations 0
ExecutionTime = 2.6 s  ClockTime = 2 s

Time = 0.1375

DICPCG:  Solving for T, Initial residual = 3.21763e-07, Final residual = 3.21763e-07, No Iterations 0
DICPCG:  Solving for T, Initial residual = 3.21763e-07, Final residual = 3.21763e-07, No Iterations 0
ExecutionTime = 2.61 s  ClockTime = 2 s

Time = 0.138

DICPCG:  Solving for T, Initial residual = 3.21763e-07, Final residual = 3.21763e-07, No Iterations 0
DICPCG:  Solving for T, Initial residual = 3.21763e-07, Final residual = 3.21763e-07, No Iterations 0
ExecutionTime = 2.61 s  ClockTime = 2 s

Time = 0.1385

DICPCG:  Solving for T, Initial residual = 3.21763e-07, Final residual = 3.21763e-07, No Iterations 0
DICPCG:  Solving for T, Initial residual = 3.21763e-07, Final residual = 3.21763e-07, No Iterations 0
ExecutionTime = 2.62 s  ClockTime = 2 s

Time = 0.139

DICPCG:  Solving for T, Initial residual = 3.21763e-07, Final residual = 3.21763e-07, No Iterations 0
DICPCG:  Solving for T, Initial residual = 3.21763e-07, Final residual = 3.21763e-07, No Iterations 0
ExecutionTime = 2.62 s  ClockTime = 2 s

Time = 0.1395

DICPCG:  Solving for T, Initial residual = 3.21763e-07, Final residual = 3.21763e-07, No Iterations 0
DICPCG:  Solving for T, Initial residual = 3.21763e-07, Final residual = 3.21763e-07, No Iterations 0
ExecutionTime = 2.63 s  ClockTime = 2 s

Time = 0.14

DICPCG:  Solving for T, Initial residual = 3.21763e-07, Final residual = 3.21763e-07, No Iterations 0
DICPCG:  Solving for T, Initial residual = 3.21763e-07, Final residual = 3.21763e-07, No Iterations 0
ExecutionTime = 2.63 s  ClockTime = 2 s

Time = 0.1405

DICPCG:  Solving for T, Initial residual = 3.21763e-07, Final residual = 3.21763e-07, No Iterations 0
DICPCG:  Solving for T, Initial residual = 3.21763e-07, Final residual = 3.21763e-07, No Iterations 0
ExecutionTime = 2.63 s  ClockTime = 2 s

Time = 0.141

DICPCG:  Solving for T, Initial residual = 3.21763e-07, Final residual = 3.21763e-07, No Iterations 0
DICPCG:  Solving for T, Initial residual = 3.21763e-07, Final residual = 3.21763e-07, No Iterations 0
ExecutionTime = 2.64 s  ClockTime = 2 s

Time = 0.1415

DICPCG:  Solving for T, Initial residual = 3.21763e-07, Final residual = 3.21763e-07, No Iterations 0
DICPCG:  Solving for T, Initial residual = 3.21763e-07, Final residual = 3.21763e-07, No Iterations 0
ExecutionTime = 2.64 s  ClockTime = 2 s

Time = 0.142

DICPCG:  Solving for T, Initial residual = 3.21763e-07, Final residual = 3.21763e-07, No Iterations 0
DICPCG:  Solving for T, Initial residual = 3.21763e-07, Final residual = 3.21763e-07, No Iterations 0
ExecutionTime = 2.65 s  ClockTime = 2 s

Time = 0.1425

DICPCG:  Solving for T, Initial residual = 3.21763e-07, Final residual = 3.21763e-07, No Iterations 0
DICPCG:  Solving for T, Initial residual = 3.21763e-07, Final residual = 3.21763e-07, No Iterations 0
ExecutionTime = 2.65 s  ClockTime = 2 s

Time = 0.143

DICPCG:  Solving for T, Initial residual = 3.21763e-07, Final residual = 3.21763e-07, No Iterations 0
DICPCG:  Solving for T, Initial residual = 3.21763e-07, Final residual = 3.21763e-07, No Iterations 0
ExecutionTime = 2.65 s  ClockTime = 2 s

Time = 0.1435

DICPCG:  Solving for T, Initial residual = 3.21763e-07, Final residual = 3.21763e-07, No Iterations 0
DICPCG:  Solving for T, Initial residual = 3.21763e-07, Final residual = 3.21763e-07, No Iterations 0
ExecutionTime = 2.66 s  ClockTime = 2 s

Time = 0.144

DICPCG:  Solving for T, Initial residual = 3.21763e-07, Final residual = 3.21763e-07, No Iterations 0
DICPCG:  Solving for T, Initial residual = 3.21763e-07, Final residual = 3.21763e-07, No Iterations 0
ExecutionTime = 2.66 s  ClockTime = 2 s

Time = 0.1445

DICPCG:  Solving for T, Initial residual = 3.21763e-07, Final residual = 3.21763e-07, No Iterations 0
DICPCG:  Solving for T, Initial residual = 3.21763e-07, Final residual = 3.21763e-07, No Iterations 0
ExecutionTime = 2.67 s  ClockTime = 2 s

Time = 0.145

DICPCG:  Solving for T, Initial residual = 3.21763e-07, Final residual = 3.21763e-07, No Iterations 0
DICPCG:  Solving for T, Initial residual = 3.21763e-07, Final residual = 3.21763e-07, No Iterations 0
ExecutionTime = 2.67 s  ClockTime = 2 s

Time = 0.1455

DICPCG:  Solving for T, Initial residual = 3.21763e-07, Final residual = 3.21763e-07, No Iterations 0
DICPCG:  Solving for T, Initial residual = 3.21763e-07, Final residual = 3.21763e-07, No Iterations 0
ExecutionTime = 2.67 s  ClockTime = 2 s

Time = 0.146

DICPCG:  Solving for T, Initial residual = 3.21763e-07, Final residual = 3.21763e-07, No Iterations 0
DICPCG:  Solving for T, Initial residual = 3.21763e-07, Final residual = 3.21763e-07, No Iterations 0
ExecutionTime = 2.68 s  ClockTime = 2 s

Time = 0.1465

DICPCG:  Solving for T, Initial residual = 3.21763e-07, Final residual = 3.21763e-07, No Iterations 0
DICPCG:  Solving for T, Initial residual = 3.21763e-07, Final residual = 3.21763e-07, No Iterations 0
ExecutionTime = 2.68 s  ClockTime = 2 s

Time = 0.147

DICPCG:  Solving for T, Initial residual = 3.21763e-07, Final residual = 3.21763e-07, No Iterations 0
DICPCG:  Solving for T, Initial residual = 3.21763e-07, Final residual = 3.21763e-07, No Iterations 0
ExecutionTime = 2.69 s  ClockTime = 2 s

Time = 0.1475

DICPCG:  Solving for T, Initial residual = 3.21763e-07, Final residual = 3.21763e-07, No Iterations 0
DICPCG:  Solving for T, Initial residual = 3.21763e-07, Final residual = 3.21763e-07, No Iterations 0
ExecutionTime = 2.69 s  ClockTime = 2 s

Time = 0.148

DICPCG:  Solving for T, Initial residual = 3.21763e-07, Final residual = 3.21763e-07, No Iterations 0
DICPCG:  Solving for T, Initial residual = 3.21763e-07, Final residual = 3.21763e-07, No Iterations 0
ExecutionTime = 2.7 s  ClockTime = 2 s

Time = 0.1485

DICPCG:  Solving for T, Initial residual = 3.21763e-07, Final residual = 3.21763e-07, No Iterations 0
DICPCG:  Solving for T, Initial residual = 3.21763e-07, Final residual = 3.21763e-07, No Iterations 0
ExecutionTime = 2.7 s  ClockTime = 2 s

Time = 0.149

DICPCG:  Solving for T, Initial residual = 3.21763e-07, Final residual = 3.21763e-07, No Iterations 0
DICPCG:  Solving for T, Initial residual = 3.21763e-07, Final residual = 3.21763e-07, No Iterations 0
ExecutionTime = 2.7 s  ClockTime = 2 s

Time = 0.1495

DICPCG:  Solving for T, Initial residual = 3.21763e-07, Final residual = 3.21763e-07, No Iterations 0
DICPCG:  Solving for T, Initial residual = 3.21763e-07, Final residual = 3.21763e-07, No Iterations 0
ExecutionTime = 2.71 s  ClockTime = 2 s

Time = 0.15

DICPCG:  Solving for T, Initial residual = 3.21763e-07, Final residual = 3.21763e-07, No Iterations 0
DICPCG:  Solving for T, Initial residual = 3.21763e-07, Final residual = 3.21763e-07, No Iterations 0
ExecutionTime = 2.79 s  ClockTime = 2 s

Time = 0.1505

DICPCG:  Solving for T, Initial residual = 3.21763e-07, Final residual = 3.21763e-07, No Iterations 0
DICPCG:  Solving for T, Initial residual = 3.21763e-07, Final residual = 3.21763e-07, No Iterations 0
ExecutionTime = 2.79 s  ClockTime = 2 s

Time = 0.151

DICPCG:  Solving for T, Initial residual = 3.21763e-07, Final residual = 3.21763e-07, No Iterations 0
DICPCG:  Solving for T, Initial residual = 3.21763e-07, Final residual = 3.21763e-07, No Iterations 0
ExecutionTime = 2.8 s  ClockTime = 2 s

Time = 0.1515

DICPCG:  Solving for T, Initial residual = 3.21763e-07, Final residual = 3.21763e-07, No Iterations 0
DICPCG:  Solving for T, Initial residual = 3.21763e-07, Final residual = 3.21763e-07, No Iterations 0
[...]
ExecutionTime = 36.99 s  ClockTime = 37 s

Time = 2.9625

DICPCG:  Solving for T, Initial residual = 3.21763e-07, Final residual = 3.21763e-07, No Iterations 0
DICPCG:  Solving for T, Initial residual = 3.21763e-07, Final residual = 3.21763e-07, No Iterations 0
ExecutionTime = 37.01 s  ClockTime = 37 s

Time = 2.963

DICPCG:  Solving for T, Initial residual = 3.21763e-07, Final residual = 3.21763e-07, No Iterations 0
DICPCG:  Solving for T, Initial residual = 3.21763e-07, Final residual = 3.21763e-07, No Iterations 0
ExecutionTime = 37.01 s  ClockTime = 37 s

Time = 2.9635

DICPCG:  Solving for T, Initial residual = 3.21763e-07, Final residual = 3.21763e-07, No Iterations 0
DICPCG:  Solving for T, Initial residual = 3.21763e-07, Final residual = 3.21763e-07, No Iterations 0
ExecutionTime = 37.02 s  ClockTime = 37 s

Time = 2.964

DICPCG:  Solving for T, Initial residual = 3.21763e-07, Final residual = 3.21763e-07, No Iterations 0
DICPCG:  Solving for T, Initial residual = 3.21763e-07, Final residual = 3.21763e-07, No Iterations 0
ExecutionTime = 37.02 s  ClockTime = 37 s

Time = 2.9645

DICPCG:  Solving for T, Initial residual = 3.21763e-07, Final residual = 3.21763e-07, No Iterations 0
DICPCG:  Solving for T, Initial residual = 3.21763e-07, Final residual = 3.21763e-07, No Iterations 0
ExecutionTime = 37.03 s  ClockTime = 37 s

Time = 2.965

DICPCG:  Solving for T, Initial residual = 3.21763e-07, Final residual = 3.21763e-07, No Iterations 0
DICPCG:  Solving for T, Initial residual = 3.21763e-07, Final residual = 3.21763e-07, No Iterations 0
ExecutionTime = 37.04 s  ClockTime = 37 s

Time = 2.9655

DICPCG:  Solving for T, Initial residual = 3.21763e-07, Final residual = 3.21763e-07, No Iterations 0
DICPCG:  Solving for T, Initial residual = 3.21763e-07, Final residual = 3.21763e-07, No Iterations 0
ExecutionTime = 37.04 s  ClockTime = 37 s

Time = 2.966

DICPCG:  Solving for T, Initial residual = 3.21763e-07, Final residual = 3.21763e-07, No Iterations 0
DICPCG:  Solving for T, Initial residual = 3.21763e-07, Final residual = 3.21763e-07, No Iterations 0
ExecutionTime = 37.05 s  ClockTime = 37 s

Time = 2.9665

DICPCG:  Solving for T, Initial residual = 3.21763e-07, Final residual = 3.21763e-07, No Iterations 0
DICPCG:  Solving for T, Initial residual = 3.21763e-07, Final residual = 3.21763e-07, No Iterations 0
ExecutionTime = 37.06 s  ClockTime = 37 s

Time = 2.967

DICPCG:  Solving for T, Initial residual = 3.21763e-07, Final residual = 3.21763e-07, No Iterations 0
DICPCG:  Solving for T, Initial residual = 3.21763e-07, Final residual = 3.21763e-07, No Iterations 0
ExecutionTime = 37.06 s  ClockTime = 37 s

Time = 2.9675

DICPCG:  Solving for T, Initial residual = 3.21763e-07, Final residual = 3.21763e-07, No Iterations 0
DICPCG:  Solving for T, Initial residual = 3.21763e-07, Final residual = 3.21763e-07, No Iterations 0
ExecutionTime = 37.07 s  ClockTime = 37 s

Time = 2.968

DICPCG:  Solving for T, Initial residual = 3.21763e-07, Final residual = 3.21763e-07, No Iterations 0
DICPCG:  Solving for T, Initial residual = 3.21763e-07, Final residual = 3.21763e-07, No Iterations 0
ExecutionTime = 37.08 s  ClockTime = 37 s

Time = 2.9685

DICPCG:  Solving for T, Initial residual = 3.21763e-07, Final residual = 3.21763e-07, No Iterations 0
DICPCG:  Solving for T, Initial residual = 3.21763e-07, Final residual = 3.21763e-07, No Iterations 0
ExecutionTime = 37.09 s  ClockTime = 37 s

Time = 2.969

DICPCG:  Solving for T, Initial residual = 3.21763e-07, Final residual = 3.21763e-07, No Iterations 0
DICPCG:  Solving for T, Initial residual = 3.21763e-07, Final residual = 3.21763e-07, No Iterations 0
ExecutionTime = 37.09 s  ClockTime = 37 s

Time = 2.9695

DICPCG:  Solving for T, Initial residual = 3.21763e-07, Final residual = 3.21763e-07, No Iterations 0
DICPCG:  Solving for T, Initial residual = 3.21763e-07, Final residual = 3.21763e-07, No Iterations 0
ExecutionTime = 37.11 s  ClockTime = 37 s

Time = 2.97

DICPCG:  Solving for T, Initial residual = 3.21763e-07, Final residual = 3.21763e-07, No Iterations 0
DICPCG:  Solving for T, Initial residual = 3.21763e-07, Final residual = 3.21763e-07, No Iterations 0
ExecutionTime = 37.12 s  ClockTime = 37 s

Time = 2.9705

DICPCG:  Solving for T, Initial residual = 3.21763e-07, Final residual = 3.21763e-07, No Iterations 0
DICPCG:  Solving for T, Initial residual = 3.21763e-07, Final residual = 3.21763e-07, No Iterations 0
ExecutionTime = 37.13 s  ClockTime = 37 s

Time = 2.971

DICPCG:  Solving for T, Initial residual = 3.21763e-07, Final residual = 3.21763e-07, No Iterations 0
DICPCG:  Solving for T, Initial residual = 3.21763e-07, Final residual = 3.21763e-07, No Iterations 0
ExecutionTime = 37.14 s  ClockTime = 37 s

Time = 2.9715

DICPCG:  Solving for T, Initial residual = 3.21763e-07, Final residual = 3.21763e-07, No Iterations 0
DICPCG:  Solving for T, Initial residual = 3.21763e-07, Final residual = 3.21763e-07, No Iterations 0
ExecutionTime = 37.15 s  ClockTime = 37 s

Time = 2.972

DICPCG:  Solving for T, Initial residual = 3.21763e-07, Final residual = 3.21763e-07, No Iterations 0
DICPCG:  Solving for T, Initial residual = 3.21763e-07, Final residual = 3.21763e-07, No Iterations 0
ExecutionTime = 37.17 s  ClockTime = 37 s

Time = 2.9725

DICPCG:  Solving for T, Initial residual = 3.21763e-07, Final residual = 3.21763e-07, No Iterations 0
DICPCG:  Solving for T, Initial residual = 3.21763e-07, Final residual = 3.21763e-07, No Iterations 0
ExecutionTime = 37.17 s  ClockTime = 37 s

Time = 2.973

DICPCG:  Solving for T, Initial residual = 3.21763e-07, Final residual = 3.21763e-07, No Iterations 0
DICPCG:  Solving for T, Initial residual = 3.21763e-07, Final residual = 3.21763e-07, No Iterations 0
ExecutionTime = 37.18 s  ClockTime = 37 s

Time = 2.9735

DICPCG:  Solving for T, Initial residual = 3.21763e-07, Final residual = 3.21763e-07, No Iterations 0
DICPCG:  Solving for T, Initial residual = 3.21763e-07, Final residual = 3.21763e-07, No Iterations 0
ExecutionTime = 37.19 s  ClockTime = 37 s

Time = 2.974

DICPCG:  Solving for T, Initial residual = 3.21763e-07, Final residual = 3.21763e-07, No Iterations 0
DICPCG:  Solving for T, Initial residual = 3.21763e-07, Final residual = 3.21763e-07, No Iterations 0
ExecutionTime = 37.2 s  ClockTime = 37 s

Time = 2.9745

DICPCG:  Solving for T, Initial residual = 3.21763e-07, Final residual = 3.21763e-07, No Iterations 0
DICPCG:  Solving for T, Initial residual = 3.21763e-07, Final residual = 3.21763e-07, No Iterations 0
ExecutionTime = 37.21 s  ClockTime = 37 s

Time = 2.975

DICPCG:  Solving for T, Initial residual = 3.21763e-07, Final residual = 3.21763e-07, No Iterations 0
DICPCG:  Solving for T, Initial residual = 3.21763e-07, Final residual = 3.21763e-07, No Iterations 0
ExecutionTime = 37.21 s  ClockTime = 37 s

Time = 2.9755

DICPCG:  Solving for T, Initial residual = 3.21763e-07, Final residual = 3.21763e-07, No Iterations 0
DICPCG:  Solving for T, Initial residual = 3.21763e-07, Final residual = 3.21763e-07, No Iterations 0
ExecutionTime = 37.22 s  ClockTime = 37 s

Time = 2.976

DICPCG:  Solving for T, Initial residual = 3.21763e-07, Final residual = 3.21763e-07, No Iterations 0
DICPCG:  Solving for T, Initial residual = 3.21763e-07, Final residual = 3.21763e-07, No Iterations 0
ExecutionTime = 37.23 s  ClockTime = 37 s

Time = 2.9765

DICPCG:  Solving for T, Initial residual = 3.21763e-07, Final residual = 3.21763e-07, No Iterations 0
DICPCG:  Solving for T, Initial residual = 3.21763e-07, Final residual = 3.21763e-07, No Iterations 0
ExecutionTime = 37.24 s  ClockTime = 37 s

Time = 2.977

DICPCG:  Solving for T, Initial residual = 3.21763e-07, Final residual = 3.21763e-07, No Iterations 0
DICPCG:  Solving for T, Initial residual = 3.21763e-07, Final residual = 3.21763e-07, No Iterations 0
ExecutionTime = 37.25 s  ClockTime = 37 s

Time = 2.9775

DICPCG:  Solving for T, Initial residual = 3.21763e-07, Final residual = 3.21763e-07, No Iterations 0
DICPCG:  Solving for T, Initial residual = 3.21763e-07, Final residual = 3.21763e-07, No Iterations 0
ExecutionTime = 37.25 s  ClockTime = 37 s

Time = 2.978

DICPCG:  Solving for T, Initial residual = 3.21763e-07, Final residual = 3.21763e-07, No Iterations 0
DICPCG:  Solving for T, Initial residual = 3.21763e-07, Final residual = 3.21763e-07, No Iterations 0
ExecutionTime = 37.26 s  ClockTime = 37 s

Time = 2.9785

DICPCG:  Solving for T, Initial residual = 3.21763e-07, Final residual = 3.21763e-07, No Iterations 0
DICPCG:  Solving for T, Initial residual = 3.21763e-07, Final residual = 3.21763e-07, No Iterations 0
ExecutionTime = 37.27 s  ClockTime = 37 s

Time = 2.979

DICPCG:  Solving for T, Initial residual = 3.21763e-07, Final residual = 3.21763e-07, No Iterations 0
DICPCG:  Solving for T, Initial residual = 3.21763e-07, Final residual = 3.21763e-07, No Iterations 0
ExecutionTime = 37.27 s  ClockTime = 37 s

Time = 2.9795

DICPCG:  Solving for T, Initial residual = 3.21763e-07, Final residual = 3.21763e-07, No Iterations 0
DICPCG:  Solving for T, Initial residual = 3.21763e-07, Final residual = 3.21763e-07, No Iterations 0
ExecutionTime = 37.28 s  ClockTime = 37 s

Time = 2.98

DICPCG:  Solving for T, Initial residual = 3.21763e-07, Final residual = 3.21763e-07, No Iterations 0
DICPCG:  Solving for T, Initial residual = 3.21763e-07, Final residual = 3.21763e-07, No Iterations 0
ExecutionTime = 37.29 s  ClockTime = 37 s

Time = 2.9805

DICPCG:  Solving for T, Initial residual = 3.21763e-07, Final residual = 3.21763e-07, No Iterations 0
DICPCG:  Solving for T, Initial residual = 3.21763e-07, Final residual = 3.21763e-07, No Iterations 0
ExecutionTime = 37.29 s  ClockTime = 37 s

Time = 2.981

DICPCG:  Solving for T, Initial residual = 3.21763e-07, Final residual = 3.21763e-07, No Iterations 0
DICPCG:  Solving for T, Initial residual = 3.21763e-07, Final residual = 3.21763e-07, No Iterations 0
ExecutionTime = 37.3 s  ClockTime = 37 s

Time = 2.9815

DICPCG:  Solving for T, Initial residual = 3.21763e-07, Final residual = 3.21763e-07, No Iterations 0
DICPCG:  Solving for T, Initial residual = 3.21763e-07, Final residual = 3.21763e-07, No Iterations 0
ExecutionTime = 37.3 s  ClockTime = 37 s

Time = 2.982

DICPCG:  Solving for T, Initial residual = 3.21763e-07, Final residual = 3.21763e-07, No Iterations 0
DICPCG:  Solving for T, Initial residual = 3.21763e-07, Final residual = 3.21763e-07, No Iterations 0
ExecutionTime = 37.32 s  ClockTime = 37 s

Time = 2.9825

DICPCG:  Solving for T, Initial residual = 3.21763e-07, Final residual = 3.21763e-07, No Iterations 0
DICPCG:  Solving for T, Initial residual = 3.21763e-07, Final residual = 3.21763e-07, No Iterations 0
ExecutionTime = 37.32 s  ClockTime = 37 s

Time = 2.983

DICPCG:  Solving for T, Initial residual = 3.21763e-07, Final residual = 3.21763e-07, No Iterations 0
DICPCG:  Solving for T, Initial residual = 3.21763e-07, Final residual = 3.21763e-07, No Iterations 0
ExecutionTime = 37.33 s  ClockTime = 37 s

Time = 2.9835

DICPCG:  Solving for T, Initial residual = 3.21763e-07, Final residual = 3.21763e-07, No Iterations 0
DICPCG:  Solving for T, Initial residual = 3.21763e-07, Final residual = 3.21763e-07, No Iterations 0
ExecutionTime = 37.33 s  ClockTime = 37 s

Time = 2.984

DICPCG:  Solving for T, Initial residual = 3.21763e-07, Final residual = 3.21763e-07, No Iterations 0
DICPCG:  Solving for T, Initial residual = 3.21763e-07, Final residual = 3.21763e-07, No Iterations 0
ExecutionTime = 37.34 s  ClockTime = 37 s

Time = 2.9845

DICPCG:  Solving for T, Initial residual = 3.21763e-07, Final residual = 3.21763e-07, No Iterations 0
DICPCG:  Solving for T, Initial residual = 3.21763e-07, Final residual = 3.21763e-07, No Iterations 0
ExecutionTime = 37.35 s  ClockTime = 37 s

Time = 2.985

DICPCG:  Solving for T, Initial residual = 3.21763e-07, Final residual = 3.21763e-07, No Iterations 0
DICPCG:  Solving for T, Initial residual = 3.21763e-07, Final residual = 3.21763e-07, No Iterations 0
ExecutionTime = 37.36 s  ClockTime = 37 s

Time = 2.9855

DICPCG:  Solving for T, Initial residual = 3.21763e-07, Final residual = 3.21763e-07, No Iterations 0
DICPCG:  Solving for T, Initial residual = 3.21763e-07, Final residual = 3.21763e-07, No Iterations 0
ExecutionTime = 37.36 s  ClockTime = 37 s

Time = 2.986

DICPCG:  Solving for T, Initial residual = 3.21763e-07, Final residual = 3.21763e-07, No Iterations 0
DICPCG:  Solving for T, Initial residual = 3.21763e-07, Final residual = 3.21763e-07, No Iterations 0
ExecutionTime = 37.37 s  ClockTime = 37 s

Time = 2.9865

DICPCG:  Solving for T, Initial residual = 3.21763e-07, Final residual = 3.21763e-07, No Iterations 0
DICPCG:  Solving for T, Initial residual = 3.21763e-07, Final residual = 3.21763e-07, No Iterations 0
ExecutionTime = 37.38 s  ClockTime = 37 s

Time = 2.987

DICPCG:  Solving for T, Initial residual = 3.21763e-07, Final residual = 3.21763e-07, No Iterations 0
DICPCG:  Solving for T, Initial residual = 3.21763e-07, Final residual = 3.21763e-07, No Iterations 0
ExecutionTime = 37.38 s  ClockTime = 37 s

Time = 2.9875

DICPCG:  Solving for T, Initial residual = 3.21763e-07, Final residual = 3.21763e-07, No Iterations 0
DICPCG:  Solving for T, Initial residual = 3.21763e-07, Final residual = 3.21763e-07, No Iterations 0
ExecutionTime = 37.39 s  ClockTime = 37 s

Time = 2.988

DICPCG:  Solving for T, Initial residual = 3.21763e-07, Final residual = 3.21763e-07, No Iterations 0
DICPCG:  Solving for T, Initial residual = 3.21763e-07, Final residual = 3.21763e-07, No Iterations 0
ExecutionTime = 37.4 s  ClockTime = 37 s

Time = 2.9885

DICPCG:  Solving for T, Initial residual = 3.21763e-07, Final residual = 3.21763e-07, No Iterations 0
DICPCG:  Solving for T, Initial residual = 3.21763e-07, Final residual = 3.21763e-07, No Iterations 0
ExecutionTime = 37.4 s  ClockTime = 37 s

Time = 2.989

DICPCG:  Solving for T, Initial residual = 3.21763e-07, Final residual = 3.21763e-07, No Iterations 0
DICPCG:  Solving for T, Initial residual = 3.21763e-07, Final residual = 3.21763e-07, No Iterations 0
ExecutionTime = 37.41 s  ClockTime = 37 s

Time = 2.9895

DICPCG:  Solving for T, Initial residual = 3.21763e-07, Final residual = 3.21763e-07, No Iterations 0
DICPCG:  Solving for T, Initial residual = 3.21763e-07, Final residual = 3.21763e-07, No Iterations 0
ExecutionTime = 37.42 s  ClockTime = 37 s

Time = 2.99

DICPCG:  Solving for T, Initial residual = 3.21763e-07, Final residual = 3.21763e-07, No Iterations 0
DICPCG:  Solving for T, Initial residual = 3.21763e-07, Final residual = 3.21763e-07, No Iterations 0
ExecutionTime = 37.43 s  ClockTime = 37 s

Time = 2.9905

DICPCG:  Solving for T, Initial residual = 3.21763e-07, Final residual = 3.21763e-07, No Iterations 0
DICPCG:  Solving for T, Initial residual = 3.21763e-07, Final residual = 3.21763e-07, No Iterations 0
ExecutionTime = 37.43 s  ClockTime = 37 s

Time = 2.991

DICPCG:  Solving for T, Initial residual = 3.21763e-07, Final residual = 3.21763e-07, No Iterations 0
DICPCG:  Solving for T, Initial residual = 3.21763e-07, Final residual = 3.21763e-07, No Iterations 0
ExecutionTime = 37.44 s  ClockTime = 37 s

Time = 2.9915

DICPCG:  Solving for T, Initial residual = 3.21763e-07, Final residual = 3.21763e-07, No Iterations 0
DICPCG:  Solving for T, Initial residual = 3.21763e-07, Final residual = 3.21763e-07, No Iterations 0
ExecutionTime = 37.44 s  ClockTime = 37 s

Time = 2.992

DICPCG:  Solving for T, Initial residual = 3.21763e-07, Final residual = 3.21763e-07, No Iterations 0
DICPCG:  Solving for T, Initial residual = 3.21763e-07, Final residual = 3.21763e-07, No Iterations 0
ExecutionTime = 37.45 s  ClockTime = 37 s

Time = 2.9925

DICPCG:  Solving for T, Initial residual = 3.21763e-07, Final residual = 3.21763e-07, No Iterations 0
DICPCG:  Solving for T, Initial residual = 3.21763e-07, Final residual = 3.21763e-07, No Iterations 0
ExecutionTime = 37.46 s  ClockTime = 37 s

Time = 2.993

DICPCG:  Solving for T, Initial residual = 3.21763e-07, Final residual = 3.21763e-07, No Iterations 0
DICPCG:  Solving for T, Initial residual = 3.21763e-07, Final residual = 3.21763e-07, No Iterations 0
ExecutionTime = 37.46 s  ClockTime = 37 s

Time = 2.9935

DICPCG:  Solving for T, Initial residual = 3.21763e-07, Final residual = 3.21763e-07, No Iterations 0
DICPCG:  Solving for T, Initial residual = 3.21763e-07, Final residual = 3.21763e-07, No Iterations 0
ExecutionTime = 37.47 s  ClockTime = 37 s

Time = 2.994

DICPCG:  Solving for T, Initial residual = 3.21763e-07, Final residual = 3.21763e-07, No Iterations 0
DICPCG:  Solving for T, Initial residual = 3.21763e-07, Final residual = 3.21763e-07, No Iterations 0
ExecutionTime = 37.48 s  ClockTime = 37 s

Time = 2.9945

DICPCG:  Solving for T, Initial residual = 3.21763e-07, Final residual = 3.21763e-07, No Iterations 0
DICPCG:  Solving for T, Initial residual = 3.21763e-07, Final residual = 3.21763e-07, No Iterations 0
ExecutionTime = 37.48 s  ClockTime = 37 s

Time = 2.995

DICPCG:  Solving for T, Initial residual = 3.21763e-07, Final residual = 3.21763e-07, No Iterations 0
DICPCG:  Solving for T, Initial residual = 3.21763e-07, Final residual = 3.21763e-07, No Iterations 0
ExecutionTime = 37.49 s  ClockTime = 37 s

Time = 2.9955

DICPCG:  Solving for T, Initial residual = 3.21763e-07, Final residual = 3.21763e-07, No Iterations 0
DICPCG:  Solving for T, Initial residual = 3.21763e-07, Final residual = 3.21763e-07, No Iterations 0
ExecutionTime = 37.5 s  ClockTime = 37 s

Time = 2.996

DICPCG:  Solving for T, Initial residual = 3.21763e-07, Final residual = 3.21763e-07, No Iterations 0
DICPCG:  Solving for T, Initial residual = 3.21763e-07, Final residual = 3.21763e-07, No Iterations 0
ExecutionTime = 37.5 s  ClockTime = 37 s

Time = 2.9965

DICPCG:  Solving for T, Initial residual = 3.21763e-07, Final residual = 3.21763e-07, No Iterations 0
DICPCG:  Solving for T, Initial residual = 3.21763e-07, Final residual = 3.21763e-07, No Iterations 0
ExecutionTime = 37.51 s  ClockTime = 37 s

Time = 2.997

DICPCG:  Solving for T, Initial residual = 3.21763e-07, Final residual = 3.21763e-07, No Iterations 0
DICPCG:  Solving for T, Initial residual = 3.21763e-07, Final residual = 3.21763e-07, No Iterations 0
ExecutionTime = 37.52 s  ClockTime = 37 s

Time = 2.9975

DICPCG:  Solving for T, Initial residual = 3.21763e-07, Final residual = 3.21763e-07, No Iterations 0
DICPCG:  Solving for T, Initial residual = 3.21763e-07, Final residual = 3.21763e-07, No Iterations 0
ExecutionTime = 37.52 s  ClockTime = 37 s

Time = 2.998

DICPCG:  Solving for T, Initial residual = 3.21763e-07, Final residual = 3.21763e-07, No Iterations 0
DICPCG:  Solving for T, Initial residual = 3.21763e-07, Final residual = 3.21763e-07, No Iterations 0
ExecutionTime = 37.53 s  ClockTime = 37 s

Time = 2.9985

DICPCG:  Solving for T, Initial residual = 3.21763e-07, Final residual = 3.21763e-07, No Iterations 0
DICPCG:  Solving for T, Initial residual = 3.21763e-07, Final residual = 3.21763e-07, No Iterations 0
ExecutionTime = 37.54 s  ClockTime = 37 s

Time = 2.999

DICPCG:  Solving for T, Initial residual = 3.21763e-07, Final residual = 3.21763e-07, No Iterations 0
DICPCG:  Solving for T, Initial residual = 3.21763e-07, Final residual = 3.21763e-07, No Iterations 0
ExecutionTime = 37.54 s  ClockTime = 37 s

Time = 2.9995

DICPCG:  Solving for T, Initial residual = 3.21763e-07, Final residual = 3.21763e-07, No Iterations 0
DICPCG:  Solving for T, Initial residual = 3.21763e-07, Final residual = 3.21763e-07, No Iterations 0
ExecutionTime = 37.55 s  ClockTime = 37 s

Time = 3

DICPCG:  Solving for T, Initial residual = 3.21763e-07, Final residual = 3.21763e-07, No Iterations 0
DICPCG:  Solving for T, Initial residual = 3.21763e-07, Final residual = 3.21763e-07, No Iterations 0
ExecutionTime = 37.65 s  ClockTime = 37 s

End

