/*---------------------------------------------------------------------------*\
| =========                 |                                                 |
| \\      /  F ield         | OpenFOAM: The Open Source CFD Toolbox           |
|  \\    /   O peration     | Version:  2312                                  |
|   \\  /    A nd           | Website:  www.openfoam.com                      |
|    \\/     M anipulation  |                                                 |
\*---------------------------------------------------------------------------*/
Build  : _e651d635-20240208 OPENFOAM=2312 patch=240220 version=2312
Arch   : "LSB;label=32;scalar=64"
Exec   : foamToVTK
Date   : Jun 14 2024
Time   : 09:24:45
Host   : thiago-MS-7D20
PID    : 10808
I/O    : uncollated
Case   : /home/thiago/Documentos/GitHub/modelagem-meios-porosos/escoamento-monofasico
nProcs : 1
trapFpe: Floating point exception trapping enabled (FOAM_SIGFPE).
fileModificationChecking : Monitoring run-time modified files using timeStampMaster (fileModificationSkew 5, maxFileModificationPolls 20)
allowSystemOperations : Allowing user-supplied system call operations

// * * * * * * * * * * * * * * * * * * * * * * * * * * * * * * * * * * * * * //
Create time

Initial memory 117724 kB
Create mesh for time = 0

VTK mesh topology: 0.16 s, 133988 kB
Time: 0
    volScalar    : T
    Internal  : "VTK/escoamento-monofasico_0/internal.vtu"
    Boundary  : "VTK/escoamento-monofasico_0/boundary/inlet1.vtp"
    Boundary  : "VTK/escoamento-monofasico_0/boundary/inlet2.vtp"
    Boundary  : "VTK/escoamento-monofasico_0/boundary/inlet3.vtp"
    Boundary  : "VTK/escoamento-monofasico_0/boundary/left.vtp"
    Boundary  : "VTK/escoamento-monofasico_0/boundary/right.vtp"
    Boundary  : "VTK/escoamento-monofasico_0/boundary/up.vtp"
    Boundary  : "VTK/escoamento-monofasico_0/boundary/down.vtp"
Wrote in 0.09 s, 160348 kB
Time: 0.05
    volScalar    : DT T gradTx gradTy gradTz
    volVector    : flux
    Internal  : "VTK/escoamento-monofasico_100/internal.vtu"
    Boundary  : "VTK/escoamento-monofasico_100/boundary/inlet1.vtp"
    Boundary  : "VTK/escoamento-monofasico_100/boundary/inlet2.vtp"
    Boundary  : "VTK/escoamento-monofasico_100/boundary/inlet3.vtp"
    Boundary  : "VTK/escoamento-monofasico_100/boundary/left.vtp"
    Boundary  : "VTK/escoamento-monofasico_100/boundary/right.vtp"
    Boundary  : "VTK/escoamento-monofasico_100/boundary/up.vtp"
    Boundary  : "VTK/escoamento-monofasico_100/boundary/down.vtp"
Wrote in 0.11 s, 153516 kB
Time: 0.1
    volScalar    : DT T gradTx gradTy gradTz
    volVector    : flux
    Internal  : "VTK/escoamento-monofasico_200/internal.vtu"
    Boundary  : "VTK/escoamento-monofasico_200/boundary/inlet1.vtp"
    Boundary  : "VTK/escoamento-monofasico_200/boundary/inlet2.vtp"
    Boundary  : "VTK/escoamento-monofasico_200/boundary/inlet3.vtp"
    Boundary  : "VTK/escoamento-monofasico_200/boundary/left.vtp"
    Boundary  : "VTK/escoamento-monofasico_200/boundary/right.vtp"
    Boundary  : "VTK/escoamento-monofasico_200/boundary/up.vtp"
    Boundary  : "VTK/escoamento-monofasico_200/boundary/down.vtp"
Wrote in 0.1 s, 153516 kB
Time: 0.15
    volScalar    : DT T gradTx gradTy gradTz
    volVector    : flux
    Internal  : "VTK/escoamento-monofasico_300/internal.vtu"
    Boundary  : "VTK/escoamento-monofasico_300/boundary/inlet1.vtp"
    Boundary  : "VTK/escoamento-monofasico_300/boundary/inlet2.vtp"
    Boundary  : "VTK/escoamento-monofasico_300/boundary/inlet3.vtp"
    Boundary  : "VTK/escoamento-monofasico_300/boundary/left.vtp"
    Boundary  : "VTK/escoamento-monofasico_300/boundary/right.vtp"
    Boundary  : "VTK/escoamento-monofasico_300/boundary/up.vtp"
    Boundary  : "VTK/escoamento-monofasico_300/boundary/down.vtp"
Wrote in 0.15 s, 153516 kB
Time: 0.2
    volScalar    : DT T gradTx gradTy gradTz
    volVector    : flux
    Internal  : "VTK/escoamento-monofasico_400/internal.vtu"
    Boundary  : "VTK/escoamento-monofasico_400/boundary/inlet1.vtp"
    Boundary  : "VTK/escoamento-monofasico_400/boundary/inlet2.vtp"
    Boundary  : "VTK/escoamento-monofasico_400/boundary/inlet3.vtp"
    Boundary  : "VTK/escoamento-monofasico_400/boundary/left.vtp"
    Boundary  : "VTK/escoamento-monofasico_400/boundary/right.vtp"
    Boundary  : "VTK/escoamento-monofasico_400/boundary/up.vtp"
    Boundary  : "VTK/escoamento-monofasico_400/boundary/down.vtp"
Wrote in 0.15 s, 153516 kB
Time: 0.25
    volScalar    : DT T gradTx gradTy gradTz
    volVector    : flux
    Internal  : "VTK/escoamento-monofasico_500/internal.vtu"
    Boundary  : "VTK/escoamento-monofasico_500/boundary/inlet1.vtp"
    Boundary  : "VTK/escoamento-monofasico_500/boundary/inlet2.vtp"
    Boundary  : "VTK/escoamento-monofasico_500/boundary/inlet3.vtp"
    Boundary  : "VTK/escoamento-monofasico_500/boundary/left.vtp"
    Boundary  : "VTK/escoamento-monofasico_500/boundary/right.vtp"
    Boundary  : "VTK/escoamento-monofasico_500/boundary/up.vtp"
    Boundary  : "VTK/escoamento-monofasico_500/boundary/down.vtp"
Wrote in 0.11 s, 153516 kB
Time: 0.3
    volScalar    : DT T gradTx gradTy gradTz
    volVector    : flux
    Internal  : "VTK/escoamento-monofasico_600/internal.vtu"
    Boundary  : "VTK/escoamento-monofasico_600/boundary/inlet1.vtp"
    Boundary  : "VTK/escoamento-monofasico_600/boundary/inlet2.vtp"
    Boundary  : "VTK/escoamento-monofasico_600/boundary/inlet3.vtp"
    Boundary  : "VTK/escoamento-monofasico_600/boundary/left.vtp"
    Boundary  : "VTK/escoamento-monofasico_600/boundary/right.vtp"
    Boundary  : "VTK/escoamento-monofasico_600/boundary/up.vtp"
    Boundary  : "VTK/escoamento-monofasico_600/boundary/down.vtp"
Wrote in 0.12 s, 153516 kB
Time: 0.35
    volScalar    : DT T gradTx gradTy gradTz
    volVector    : flux
    Internal  : "VTK/escoamento-monofasico_700/internal.vtu"
    Boundary  : "VTK/escoamento-monofasico_700/boundary/inlet1.vtp"
    Boundary  : "VTK/escoamento-monofasico_700/boundary/inlet2.vtp"
    Boundary  : "VTK/escoamento-monofasico_700/boundary/inlet3.vtp"
    Boundary  : "VTK/escoamento-monofasico_700/boundary/left.vtp"
    Boundary  : "VTK/escoamento-monofasico_700/boundary/right.vtp"
    Boundary  : "VTK/escoamento-monofasico_700/boundary/up.vtp"
    Boundary  : "VTK/escoamento-monofasico_700/boundary/down.vtp"
Wrote in 0.14 s, 153516 kB
Time: 0.4
    volScalar    : DT T gradTx gradTy gradTz
    volVector    : flux
    Internal  : "VTK/escoamento-monofasico_800/internal.vtu"
    Boundary  : "VTK/escoamento-monofasico_800/boundary/inlet1.vtp"
    Boundary  : "VTK/escoamento-monofasico_800/boundary/inlet2.vtp"
    Boundary  : "VTK/escoamento-monofasico_800/boundary/inlet3.vtp"
    Boundary  : "VTK/escoamento-monofasico_800/boundary/left.vtp"
    Boundary  : "VTK/escoamento-monofasico_800/boundary/right.vtp"
    Boundary  : "VTK/escoamento-monofasico_800/boundary/up.vtp"
    Boundary  : "VTK/escoamento-monofasico_800/boundary/down.vtp"
Wrote in 0.17 s, 154544 kB
Time: 0.45
    volScalar    : DT T gradTx gradTy gradTz
    volVector    : flux
    Internal  : "VTK/escoamento-monofasico_900/internal.vtu"
    Boundary  : "VTK/escoamento-monofasico_900/boundary/inlet1.vtp"
    Boundary  : "VTK/escoamento-monofasico_900/boundary/inlet2.vtp"
    Boundary  : "VTK/escoamento-monofasico_900/boundary/inlet3.vtp"
    Boundary  : "VTK/escoamento-monofasico_900/boundary/left.vtp"
    Boundary  : "VTK/escoamento-monofasico_900/boundary/right.vtp"
    Boundary  : "VTK/escoamento-monofasico_900/boundary/up.vtp"
    Boundary  : "VTK/escoamento-monofasico_900/boundary/down.vtp"
Wrote in 0.17 s, 154544 kB
Time: 0.5
    volScalar    : DT T gradTx gradTy gradTz
    volVector    : flux
    Internal  : "VTK/escoamento-monofasico_1000/internal.vtu"
    Boundary  : "VTK/escoamento-monofasico_1000/boundary/inlet1.vtp"
    Boundary  : "VTK/escoamento-monofasico_1000/boundary/inlet2.vtp"
    Boundary  : "VTK/escoamento-monofasico_1000/boundary/inlet3.vtp"
    Boundary  : "VTK/escoamento-monofasico_1000/boundary/left.vtp"
    Boundary  : "VTK/escoamento-monofasico_1000/boundary/right.vtp"
    Boundary  : "VTK/escoamento-monofasico_1000/boundary/up.vtp"
    Boundary  : "VTK/escoamento-monofasico_1000/boundary/down.vtp"
Wrote in 0.16 s, 162264 kB
Time: 0.55
    volScalar    : DT T gradTx gradTy gradTz
    volVector    : flux
    Internal  : "VTK/escoamento-monofasico_1100/internal.vtu"
    Boundary  : "VTK/escoamento-monofasico_1100/boundary/inlet1.vtp"
    Boundary  : "VTK/escoamento-monofasico_1100/boundary/inlet2.vtp"
    Boundary  : "VTK/escoamento-monofasico_1100/boundary/inlet3.vtp"
    Boundary  : "VTK/escoamento-monofasico_1100/boundary/left.vtp"
    Boundary  : "VTK/escoamento-monofasico_1100/boundary/right.vtp"
    Boundary  : "VTK/escoamento-monofasico_1100/boundary/up.vtp"
    Boundary  : "VTK/escoamento-monofasico_1100/boundary/down.vtp"
Wrote in 0.17 s, 154540 kB
Time: 0.6
    volScalar    : DT T gradTx gradTy gradTz
    volVector    : flux
    Internal  : "VTK/escoamento-monofasico_1200/internal.vtu"
    Boundary  : "VTK/escoamento-monofasico_1200/boundary/inlet1.vtp"
    Boundary  : "VTK/escoamento-monofasico_1200/boundary/inlet2.vtp"
    Boundary  : "VTK/escoamento-monofasico_1200/boundary/inlet3.vtp"
    Boundary  : "VTK/escoamento-monofasico_1200/boundary/left.vtp"
    Boundary  : "VTK/escoamento-monofasico_1200/boundary/right.vtp"
    Boundary  : "VTK/escoamento-monofasico_1200/boundary/up.vtp"
    Boundary  : "VTK/escoamento-monofasico_1200/boundary/down.vtp"
Wrote in 0.14 s, 154540 kB
Time: 0.65
    volScalar    : DT T gradTx gradTy gradTz
    volVector    : flux
    Internal  : "VTK/escoamento-monofasico_1300/internal.vtu"
    Boundary  : "VTK/escoamento-monofasico_1300/boundary/inlet1.vtp"
    Boundary  : "VTK/escoamento-monofasico_1300/boundary/inlet2.vtp"
    Boundary  : "VTK/escoamento-monofasico_1300/boundary/inlet3.vtp"
    Boundary  : "VTK/escoamento-monofasico_1300/boundary/left.vtp"
    Boundary  : "VTK/escoamento-monofasico_1300/boundary/right.vtp"
    Boundary  : "VTK/escoamento-monofasico_1300/boundary/up.vtp"
    Boundary  : "VTK/escoamento-monofasico_1300/boundary/down.vtp"
Wrote in 0.11 s, 154540 kB
Time: 0.7
    volScalar    : DT T gradTx gradTy gradTz
    volVector    : flux
    Internal  : "VTK/escoamento-monofasico_1400/internal.vtu"
    Boundary  : "VTK/escoamento-monofasico_1400/boundary/inlet1.vtp"
    Boundary  : "VTK/escoamento-monofasico_1400/boundary/inlet2.vtp"
    Boundary  : "VTK/escoamento-monofasico_1400/boundary/inlet3.vtp"
    Boundary  : "VTK/escoamento-monofasico_1400/boundary/left.vtp"
    Boundary  : "VTK/escoamento-monofasico_1400/boundary/right.vtp"
    Boundary  : "VTK/escoamento-monofasico_1400/boundary/up.vtp"
    Boundary  : "VTK/escoamento-monofasico_1400/boundary/down.vtp"
Wrote in 0.12 s, 154540 kB
Time: 0.75
    volScalar    : DT T gradTx gradTy gradTz
    volVector    : flux
    Internal  : "VTK/escoamento-monofasico_1500/internal.vtu"
    Boundary  : "VTK/escoamento-monofasico_1500/boundary/inlet1.vtp"
    Boundary  : "VTK/escoamento-monofasico_1500/boundary/inlet2.vtp"
    Boundary  : "VTK/escoamento-monofasico_1500/boundary/inlet3.vtp"
    Boundary  : "VTK/escoamento-monofasico_1500/boundary/left.vtp"
    Boundary  : "VTK/escoamento-monofasico_1500/boundary/right.vtp"
    Boundary  : "VTK/escoamento-monofasico_1500/boundary/up.vtp"
    Boundary  : "VTK/escoamento-monofasico_1500/boundary/down.vtp"
Wrote in 0.11 s, 162268 kB
Time: 0.8
    volScalar    : DT T gradTx gradTy gradTz
    volVector    : flux
    Internal  : "VTK/escoamento-monofasico_1600/internal.vtu"
    Boundary  : "VTK/escoamento-monofasico_1600/boundary/inlet1.vtp"
    Boundary  : "VTK/escoamento-monofasico_1600/boundary/inlet2.vtp"
    Boundary  : "VTK/escoamento-monofasico_1600/boundary/inlet3.vtp"
    Boundary  : "VTK/escoamento-monofasico_1600/boundary/left.vtp"
    Boundary  : "VTK/escoamento-monofasico_1600/boundary/right.vtp"
    Boundary  : "VTK/escoamento-monofasico_1600/boundary/up.vtp"
    Boundary  : "VTK/escoamento-monofasico_1600/boundary/down.vtp"
Wrote in 0.11 s, 163992 kB
Time: 0.85
    volScalar    : DT T gradTx gradTy gradTz
    volVector    : flux
    Internal  : "VTK/escoamento-monofasico_1700/internal.vtu"
    Boundary  : "VTK/escoamento-monofasico_1700/boundary/inlet1.vtp"
    Boundary  : "VTK/escoamento-monofasico_1700/boundary/inlet2.vtp"
    Boundary  : "VTK/escoamento-monofasico_1700/boundary/inlet3.vtp"
    Boundary  : "VTK/escoamento-monofasico_1700/boundary/left.vtp"
    Boundary  : "VTK/escoamento-monofasico_1700/boundary/right.vtp"
    Boundary  : "VTK/escoamento-monofasico_1700/boundary/up.vtp"
    Boundary  : "VTK/escoamento-monofasico_1700/boundary/down.vtp"
Wrote in 0.11 s, 154540 kB
Time: 0.9
    volScalar    : DT T gradTx gradTy gradTz
    volVector    : flux
    Internal  : "VTK/escoamento-monofasico_1800/internal.vtu"
    Boundary  : "VTK/escoamento-monofasico_1800/boundary/inlet1.vtp"
    Boundary  : "VTK/escoamento-monofasico_1800/boundary/inlet2.vtp"
    Boundary  : "VTK/escoamento-monofasico_1800/boundary/inlet3.vtp"
    Boundary  : "VTK/escoamento-monofasico_1800/boundary/left.vtp"
    Boundary  : "VTK/escoamento-monofasico_1800/boundary/right.vtp"
    Boundary  : "VTK/escoamento-monofasico_1800/boundary/up.vtp"
    Boundary  : "VTK/escoamento-monofasico_1800/boundary/down.vtp"
Wrote in 0.11 s, 162268 kB
Time: 0.95
    volScalar    : DT T gradTx gradTy gradTz
    volVector    : flux
    Internal  : "VTK/escoamento-monofasico_1900/internal.vtu"
    Boundary  : "VTK/escoamento-monofasico_1900/boundary/inlet1.vtp"
    Boundary  : "VTK/escoamento-monofasico_1900/boundary/inlet2.vtp"
    Boundary  : "VTK/escoamento-monofasico_1900/boundary/inlet3.vtp"
    Boundary  : "VTK/escoamento-monofasico_1900/boundary/left.vtp"
    Boundary  : "VTK/escoamento-monofasico_1900/boundary/right.vtp"
    Boundary  : "VTK/escoamento-monofasico_1900/boundary/up.vtp"
    Boundary  : "VTK/escoamento-monofasico_1900/boundary/down.vtp"
Wrote in 0.11 s, 163992 kB
Time: 1
    volScalar    : DT T gradTx gradTy gradTz
    volVector    : flux
    Internal  : "VTK/escoamento-monofasico_2000/internal.vtu"
    Boundary  : "VTK/escoamento-monofasico_2000/boundary/inlet1.vtp"
    Boundary  : "VTK/escoamento-monofasico_2000/boundary/inlet2.vtp"
    Boundary  : "VTK/escoamento-monofasico_2000/boundary/inlet3.vtp"
    Boundary  : "VTK/escoamento-monofasico_2000/boundary/left.vtp"
    Boundary  : "VTK/escoamento-monofasico_2000/boundary/right.vtp"
    Boundary  : "VTK/escoamento-monofasico_2000/boundary/up.vtp"
    Boundary  : "VTK/escoamento-monofasico_2000/boundary/down.vtp"
Wrote in 0.11 s, 164256 kB
Time: 1.05
    volScalar    : DT T gradTx gradTy gradTz
    volVector    : flux
    Internal  : "VTK/escoamento-monofasico_2100/internal.vtu"
    Boundary  : "VTK/escoamento-monofasico_2100/boundary/inlet1.vtp"
    Boundary  : "VTK/escoamento-monofasico_2100/boundary/inlet2.vtp"
    Boundary  : "VTK/escoamento-monofasico_2100/boundary/inlet3.vtp"
    Boundary  : "VTK/escoamento-monofasico_2100/boundary/left.vtp"
    Boundary  : "VTK/escoamento-monofasico_2100/boundary/right.vtp"
    Boundary  : "VTK/escoamento-monofasico_2100/boundary/up.vtp"
    Boundary  : "VTK/escoamento-monofasico_2100/boundary/down.vtp"
Wrote in 0.1 s, 154540 kB
Time: 1.1
    volScalar    : DT T gradTx gradTy gradTz
    volVector    : flux
    Internal  : "VTK/escoamento-monofasico_2200/internal.vtu"
    Boundary  : "VTK/escoamento-monofasico_2200/boundary/inlet1.vtp"
    Boundary  : "VTK/escoamento-monofasico_2200/boundary/inlet2.vtp"
    Boundary  : "VTK/escoamento-monofasico_2200/boundary/inlet3.vtp"
    Boundary  : "VTK/escoamento-monofasico_2200/boundary/left.vtp"
    Boundary  : "VTK/escoamento-monofasico_2200/boundary/right.vtp"
    Boundary  : "VTK/escoamento-monofasico_2200/boundary/up.vtp"
    Boundary  : "VTK/escoamento-monofasico_2200/boundary/down.vtp"
Wrote in 0.11 s, 162268 kB
Time: 1.15
    volScalar    : DT T gradTx gradTy gradTz
    volVector    : flux
    Internal  : "VTK/escoamento-monofasico_2300/internal.vtu"
    Boundary  : "VTK/escoamento-monofasico_2300/boundary/inlet1.vtp"
    Boundary  : "VTK/escoamento-monofasico_2300/boundary/inlet2.vtp"
    Boundary  : "VTK/escoamento-monofasico_2300/boundary/inlet3.vtp"
    Boundary  : "VTK/escoamento-monofasico_2300/boundary/left.vtp"
    Boundary  : "VTK/escoamento-monofasico_2300/boundary/right.vtp"
    Boundary  : "VTK/escoamento-monofasico_2300/boundary/up.vtp"
    Boundary  : "VTK/escoamento-monofasico_2300/boundary/down.vtp"
Wrote in 0.11 s, 162268 kB
Time: 1.2
    volScalar    : DT T gradTx gradTy gradTz
    volVector    : flux
    Internal  : "VTK/escoamento-monofasico_2400/internal.vtu"
    Boundary  : "VTK/escoamento-monofasico_2400/boundary/inlet1.vtp"
    Boundary  : "VTK/escoamento-monofasico_2400/boundary/inlet2.vtp"
    Boundary  : "VTK/escoamento-monofasico_2400/boundary/inlet3.vtp"
    Boundary  : "VTK/escoamento-monofasico_2400/boundary/left.vtp"
    Boundary  : "VTK/escoamento-monofasico_2400/boundary/right.vtp"
    Boundary  : "VTK/escoamento-monofasico_2400/boundary/up.vtp"
    Boundary  : "VTK/escoamento-monofasico_2400/boundary/down.vtp"
Wrote in 0.11 s, 154540 kB
Time: 1.25
    volScalar    : DT T gradTx gradTy gradTz
    volVector    : flux
    Internal  : "VTK/escoamento-monofasico_2500/internal.vtu"
    Boundary  : "VTK/escoamento-monofasico_2500/boundary/inlet1.vtp"
    Boundary  : "VTK/escoamento-monofasico_2500/boundary/inlet2.vtp"
    Boundary  : "VTK/escoamento-monofasico_2500/boundary/inlet3.vtp"
    Boundary  : "VTK/escoamento-monofasico_2500/boundary/left.vtp"
    Boundary  : "VTK/escoamento-monofasico_2500/boundary/right.vtp"
    Boundary  : "VTK/escoamento-monofasico_2500/boundary/up.vtp"
    Boundary  : "VTK/escoamento-monofasico_2500/boundary/down.vtp"
Wrote in 0.1 s, 162268 kB
Time: 1.3
    volScalar    : DT T gradTx gradTy gradTz
    volVector    : flux
    Internal  : "VTK/escoamento-monofasico_2600/internal.vtu"
    Boundary  : "VTK/escoamento-monofasico_2600/boundary/inlet1.vtp"
    Boundary  : "VTK/escoamento-monofasico_2600/boundary/inlet2.vtp"
    Boundary  : "VTK/escoamento-monofasico_2600/boundary/inlet3.vtp"
    Boundary  : "VTK/escoamento-monofasico_2600/boundary/left.vtp"
    Boundary  : "VTK/escoamento-monofasico_2600/boundary/right.vtp"
    Boundary  : "VTK/escoamento-monofasico_2600/boundary/up.vtp"
    Boundary  : "VTK/escoamento-monofasico_2600/boundary/down.vtp"
Wrote in 0.11 s, 162268 kB
Time: 1.35
    volScalar    : DT T gradTx gradTy gradTz
    volVector    : flux
    Internal  : "VTK/escoamento-monofasico_2700/internal.vtu"
    Boundary  : "VTK/escoamento-monofasico_2700/boundary/inlet1.vtp"
    Boundary  : "VTK/escoamento-monofasico_2700/boundary/inlet2.vtp"
    Boundary  : "VTK/escoamento-monofasico_2700/boundary/inlet3.vtp"
    Boundary  : "VTK/escoamento-monofasico_2700/boundary/left.vtp"
    Boundary  : "VTK/escoamento-monofasico_2700/boundary/right.vtp"
    Boundary  : "VTK/escoamento-monofasico_2700/boundary/up.vtp"
    Boundary  : "VTK/escoamento-monofasico_2700/boundary/down.vtp"
Wrote in 0.11 s, 154540 kB
Time: 1.4
    volScalar    : DT T gradTx gradTy gradTz
    volVector    : flux
    Internal  : "VTK/escoamento-monofasico_2800/internal.vtu"
    Boundary  : "VTK/escoamento-monofasico_2800/boundary/inlet1.vtp"
    Boundary  : "VTK/escoamento-monofasico_2800/boundary/inlet2.vtp"
    Boundary  : "VTK/escoamento-monofasico_2800/boundary/inlet3.vtp"
    Boundary  : "VTK/escoamento-monofasico_2800/boundary/left.vtp"
    Boundary  : "VTK/escoamento-monofasico_2800/boundary/right.vtp"
    Boundary  : "VTK/escoamento-monofasico_2800/boundary/up.vtp"
    Boundary  : "VTK/escoamento-monofasico_2800/boundary/down.vtp"
Wrote in 0.1 s, 162268 kB
Time: 1.45
    volScalar    : DT T gradTx gradTy gradTz
    volVector    : flux
    Internal  : "VTK/escoamento-monofasico_2900/internal.vtu"
    Boundary  : "VTK/escoamento-monofasico_2900/boundary/inlet1.vtp"
    Boundary  : "VTK/escoamento-monofasico_2900/boundary/inlet2.vtp"
    Boundary  : "VTK/escoamento-monofasico_2900/boundary/inlet3.vtp"
    Boundary  : "VTK/escoamento-monofasico_2900/boundary/left.vtp"
    Boundary  : "VTK/escoamento-monofasico_2900/boundary/right.vtp"
    Boundary  : "VTK/escoamento-monofasico_2900/boundary/up.vtp"
    Boundary  : "VTK/escoamento-monofasico_2900/boundary/down.vtp"
Wrote in 0.11 s, 163992 kB
Time: 1.5
    volScalar    : DT T gradTx gradTy gradTz
    volVector    : flux
    Internal  : "VTK/escoamento-monofasico_3000/internal.vtu"
    Boundary  : "VTK/escoamento-monofasico_3000/boundary/inlet1.vtp"
    Boundary  : "VTK/escoamento-monofasico_3000/boundary/inlet2.vtp"
    Boundary  : "VTK/escoamento-monofasico_3000/boundary/inlet3.vtp"
    Boundary  : "VTK/escoamento-monofasico_3000/boundary/left.vtp"
    Boundary  : "VTK/escoamento-monofasico_3000/boundary/right.vtp"
    Boundary  : "VTK/escoamento-monofasico_3000/boundary/up.vtp"
    Boundary  : "VTK/escoamento-monofasico_3000/boundary/down.vtp"
Wrote in 0.11 s, 164260 kB
Time: 1.55
    volScalar    : DT T gradTx gradTy gradTz
    volVector    : flux
    Internal  : "VTK/escoamento-monofasico_3100/internal.vtu"
    Boundary  : "VTK/escoamento-monofasico_3100/boundary/inlet1.vtp"
    Boundary  : "VTK/escoamento-monofasico_3100/boundary/inlet2.vtp"
    Boundary  : "VTK/escoamento-monofasico_3100/boundary/inlet3.vtp"
    Boundary  : "VTK/escoamento-monofasico_3100/boundary/left.vtp"
    Boundary  : "VTK/escoamento-monofasico_3100/boundary/right.vtp"
    Boundary  : "VTK/escoamento-monofasico_3100/boundary/up.vtp"
    Boundary  : "VTK/escoamento-monofasico_3100/boundary/down.vtp"
Wrote in 0.15 s, 154540 kB
Time: 1.6
    volScalar    : DT T gradTx gradTy gradTz
    volVector    : flux
    Internal  : "VTK/escoamento-monofasico_3200/internal.vtu"
    Boundary  : "VTK/escoamento-monofasico_3200/boundary/inlet1.vtp"
    Boundary  : "VTK/escoamento-monofasico_3200/boundary/inlet2.vtp"
    Boundary  : "VTK/escoamento-monofasico_3200/boundary/inlet3.vtp"
    Boundary  : "VTK/escoamento-monofasico_3200/boundary/left.vtp"
    Boundary  : "VTK/escoamento-monofasico_3200/boundary/right.vtp"
    Boundary  : "VTK/escoamento-monofasico_3200/boundary/up.vtp"
    Boundary  : "VTK/escoamento-monofasico_3200/boundary/down.vtp"
Wrote in 0.13 s, 162272 kB
Time: 1.65
    volScalar    : DT T gradTx gradTy gradTz
    volVector    : flux
    Internal  : "VTK/escoamento-monofasico_3300/internal.vtu"
    Boundary  : "VTK/escoamento-monofasico_3300/boundary/inlet1.vtp"
    Boundary  : "VTK/escoamento-monofasico_3300/boundary/inlet2.vtp"
    Boundary  : "VTK/escoamento-monofasico_3300/boundary/inlet3.vtp"
    Boundary  : "VTK/escoamento-monofasico_3300/boundary/left.vtp"
    Boundary  : "VTK/escoamento-monofasico_3300/boundary/right.vtp"
    Boundary  : "VTK/escoamento-monofasico_3300/boundary/up.vtp"
    Boundary  : "VTK/escoamento-monofasico_3300/boundary/down.vtp"
Wrote in 0.13 s, 154540 kB
Time: 1.7
    volScalar    : DT T gradTx gradTy gradTz
    volVector    : flux
    Internal  : "VTK/escoamento-monofasico_3400/internal.vtu"
    Boundary  : "VTK/escoamento-monofasico_3400/boundary/inlet1.vtp"
    Boundary  : "VTK/escoamento-monofasico_3400/boundary/inlet2.vtp"
    Boundary  : "VTK/escoamento-monofasico_3400/boundary/inlet3.vtp"
    Boundary  : "VTK/escoamento-monofasico_3400/boundary/left.vtp"
    Boundary  : "VTK/escoamento-monofasico_3400/boundary/right.vtp"
    Boundary  : "VTK/escoamento-monofasico_3400/boundary/up.vtp"
    Boundary  : "VTK/escoamento-monofasico_3400/boundary/down.vtp"
Wrote in 0.13 s, 162272 kB
Time: 1.75
    volScalar    : DT T gradTx gradTy gradTz
    volVector    : flux
    Internal  : "VTK/escoamento-monofasico_3500/internal.vtu"
    Boundary  : "VTK/escoamento-monofasico_3500/boundary/inlet1.vtp"
    Boundary  : "VTK/escoamento-monofasico_3500/boundary/inlet2.vtp"
    Boundary  : "VTK/escoamento-monofasico_3500/boundary/inlet3.vtp"
    Boundary  : "VTK/escoamento-monofasico_3500/boundary/left.vtp"
    Boundary  : "VTK/escoamento-monofasico_3500/boundary/right.vtp"
    Boundary  : "VTK/escoamento-monofasico_3500/boundary/up.vtp"
    Boundary  : "VTK/escoamento-monofasico_3500/boundary/down.vtp"
Wrote in 0.12 s, 154540 kB
Time: 1.8
    volScalar    : DT T gradTx gradTy gradTz
    volVector    : flux
    Internal  : "VTK/escoamento-monofasico_3600/internal.vtu"
    Boundary  : "VTK/escoamento-monofasico_3600/boundary/inlet1.vtp"
    Boundary  : "VTK/escoamento-monofasico_3600/boundary/inlet2.vtp"
    Boundary  : "VTK/escoamento-monofasico_3600/boundary/inlet3.vtp"
    Boundary  : "VTK/escoamento-monofasico_3600/boundary/left.vtp"
    Boundary  : "VTK/escoamento-monofasico_3600/boundary/right.vtp"
    Boundary  : "VTK/escoamento-monofasico_3600/boundary/up.vtp"
    Boundary  : "VTK/escoamento-monofasico_3600/boundary/down.vtp"
Wrote in 0.11 s, 162484 kB
Time: 1.85
    volScalar    : DT T gradTx gradTy gradTz
    volVector    : flux
    Internal  : "VTK/escoamento-monofasico_3700/internal.vtu"
    Boundary  : "VTK/escoamento-monofasico_3700/boundary/inlet1.vtp"
    Boundary  : "VTK/escoamento-monofasico_3700/boundary/inlet2.vtp"
    Boundary  : "VTK/escoamento-monofasico_3700/boundary/inlet3.vtp"
    Boundary  : "VTK/escoamento-monofasico_3700/boundary/left.vtp"
    Boundary  : "VTK/escoamento-monofasico_3700/boundary/right.vtp"
    Boundary  : "VTK/escoamento-monofasico_3700/boundary/up.vtp"
    Boundary  : "VTK/escoamento-monofasico_3700/boundary/down.vtp"
Wrote in 0.11 s, 154540 kB
Time: 1.9
    volScalar    : DT T gradTx gradTy gradTz
    volVector    : flux
    Internal  : "VTK/escoamento-monofasico_3800/internal.vtu"
    Boundary  : "VTK/escoamento-monofasico_3800/boundary/inlet1.vtp"
    Boundary  : "VTK/escoamento-monofasico_3800/boundary/inlet2.vtp"
    Boundary  : "VTK/escoamento-monofasico_3800/boundary/inlet3.vtp"
    Boundary  : "VTK/escoamento-monofasico_3800/boundary/left.vtp"
    Boundary  : "VTK/escoamento-monofasico_3800/boundary/right.vtp"
    Boundary  : "VTK/escoamento-monofasico_3800/boundary/up.vtp"
    Boundary  : "VTK/escoamento-monofasico_3800/boundary/down.vtp"
Wrote in 0.11 s, 162272 kB
Time: 1.95
    volScalar    : DT T gradTx gradTy gradTz
    volVector    : flux
    Internal  : "VTK/escoamento-monofasico_3900/internal.vtu"
    Boundary  : "VTK/escoamento-monofasico_3900/boundary/inlet1.vtp"
    Boundary  : "VTK/escoamento-monofasico_3900/boundary/inlet2.vtp"
    Boundary  : "VTK/escoamento-monofasico_3900/boundary/inlet3.vtp"
    Boundary  : "VTK/escoamento-monofasico_3900/boundary/left.vtp"
    Boundary  : "VTK/escoamento-monofasico_3900/boundary/right.vtp"
    Boundary  : "VTK/escoamento-monofasico_3900/boundary/up.vtp"
    Boundary  : "VTK/escoamento-monofasico_3900/boundary/down.vtp"
Wrote in 0.1 s, 157196 kB
Time: 2
    volScalar    : DT T gradTx gradTy gradTz
    volVector    : flux
    Internal  : "VTK/escoamento-monofasico_4000/internal.vtu"
    Boundary  : "VTK/escoamento-monofasico_4000/boundary/inlet1.vtp"
    Boundary  : "VTK/escoamento-monofasico_4000/boundary/inlet2.vtp"
    Boundary  : "VTK/escoamento-monofasico_4000/boundary/inlet3.vtp"
    Boundary  : "VTK/escoamento-monofasico_4000/boundary/left.vtp"
    Boundary  : "VTK/escoamento-monofasico_4000/boundary/right.vtp"
    Boundary  : "VTK/escoamento-monofasico_4000/boundary/up.vtp"
    Boundary  : "VTK/escoamento-monofasico_4000/boundary/down.vtp"
Wrote in 0.11 s, 164608 kB
Time: 2.05
    volScalar    : DT T gradTx gradTy gradTz
    volVector    : flux
    Internal  : "VTK/escoamento-monofasico_4100/internal.vtu"
    Boundary  : "VTK/escoamento-monofasico_4100/boundary/inlet1.vtp"
    Boundary  : "VTK/escoamento-monofasico_4100/boundary/inlet2.vtp"
    Boundary  : "VTK/escoamento-monofasico_4100/boundary/inlet3.vtp"
    Boundary  : "VTK/escoamento-monofasico_4100/boundary/left.vtp"
    Boundary  : "VTK/escoamento-monofasico_4100/boundary/right.vtp"
    Boundary  : "VTK/escoamento-monofasico_4100/boundary/up.vtp"
    Boundary  : "VTK/escoamento-monofasico_4100/boundary/down.vtp"
Wrote in 0.14 s, 157192 kB
Time: 2.1
    volScalar    : DT T gradTx gradTy gradTz
    volVector    : flux
    Internal  : "VTK/escoamento-monofasico_4200/internal.vtu"
    Boundary  : "VTK/escoamento-monofasico_4200/boundary/inlet1.vtp"
    Boundary  : "VTK/escoamento-monofasico_4200/boundary/inlet2.vtp"
    Boundary  : "VTK/escoamento-monofasico_4200/boundary/inlet3.vtp"
    Boundary  : "VTK/escoamento-monofasico_4200/boundary/left.vtp"
    Boundary  : "VTK/escoamento-monofasico_4200/boundary/right.vtp"
    Boundary  : "VTK/escoamento-monofasico_4200/boundary/up.vtp"
    Boundary  : "VTK/escoamento-monofasico_4200/boundary/down.vtp"
Wrote in 0.1 s, 164604 kB
Time: 2.15
    volScalar    : DT T gradTx gradTy gradTz
    volVector    : flux
    Internal  : "VTK/escoamento-monofasico_4300/internal.vtu"
    Boundary  : "VTK/escoamento-monofasico_4300/boundary/inlet1.vtp"
    Boundary  : "VTK/escoamento-monofasico_4300/boundary/inlet2.vtp"
    Boundary  : "VTK/escoamento-monofasico_4300/boundary/inlet3.vtp"
    Boundary  : "VTK/escoamento-monofasico_4300/boundary/left.vtp"
    Boundary  : "VTK/escoamento-monofasico_4300/boundary/right.vtp"
    Boundary  : "VTK/escoamento-monofasico_4300/boundary/up.vtp"
    Boundary  : "VTK/escoamento-monofasico_4300/boundary/down.vtp"
Wrote in 0.13 s, 157192 kB
Time: 2.2
    volScalar    : DT T gradTx gradTy gradTz
    volVector    : flux
    Internal  : "VTK/escoamento-monofasico_4400/internal.vtu"
    Boundary  : "VTK/escoamento-monofasico_4400/boundary/inlet1.vtp"
    Boundary  : "VTK/escoamento-monofasico_4400/boundary/inlet2.vtp"
    Boundary  : "VTK/escoamento-monofasico_4400/boundary/inlet3.vtp"
    Boundary  : "VTK/escoamento-monofasico_4400/boundary/left.vtp"
    Boundary  : "VTK/escoamento-monofasico_4400/boundary/right.vtp"
    Boundary  : "VTK/escoamento-monofasico_4400/boundary/up.vtp"
    Boundary  : "VTK/escoamento-monofasico_4400/boundary/down.vtp"
Wrote in 0.11 s, 164604 kB
Time: 2.25
    volScalar    : DT T gradTx gradTy gradTz
    volVector    : flux
    Internal  : "VTK/escoamento-monofasico_4500/internal.vtu"
    Boundary  : "VTK/escoamento-monofasico_4500/boundary/inlet1.vtp"
    Boundary  : "VTK/escoamento-monofasico_4500/boundary/inlet2.vtp"
    Boundary  : "VTK/escoamento-monofasico_4500/boundary/inlet3.vtp"
    Boundary  : "VTK/escoamento-monofasico_4500/boundary/left.vtp"
    Boundary  : "VTK/escoamento-monofasico_4500/boundary/right.vtp"
    Boundary  : "VTK/escoamento-monofasico_4500/boundary/up.vtp"
    Boundary  : "VTK/escoamento-monofasico_4500/boundary/down.vtp"
Wrote in 0.11 s, 155332 kB
Time: 2.3
    volScalar    : DT T gradTx gradTy gradTz
    volVector    : flux
    Internal  : "VTK/escoamento-monofasico_4600/internal.vtu"
    Boundary  : "VTK/escoamento-monofasico_4600/boundary/inlet1.vtp"
    Boundary  : "VTK/escoamento-monofasico_4600/boundary/inlet2.vtp"
    Boundary  : "VTK/escoamento-monofasico_4600/boundary/inlet3.vtp"
    Boundary  : "VTK/escoamento-monofasico_4600/boundary/left.vtp"
    Boundary  : "VTK/escoamento-monofasico_4600/boundary/right.vtp"
    Boundary  : "VTK/escoamento-monofasico_4600/boundary/up.vtp"
    Boundary  : "VTK/escoamento-monofasico_4600/boundary/down.vtp"
Wrote in 0.1 s, 162276 kB
Time: 2.35
    volScalar    : DT T gradTx gradTy gradTz
    volVector    : flux
    Internal  : "VTK/escoamento-monofasico_4700/internal.vtu"
    Boundary  : "VTK/escoamento-monofasico_4700/boundary/inlet1.vtp"
    Boundary  : "VTK/escoamento-monofasico_4700/boundary/inlet2.vtp"
    Boundary  : "VTK/escoamento-monofasico_4700/boundary/inlet3.vtp"
    Boundary  : "VTK/escoamento-monofasico_4700/boundary/left.vtp"
    Boundary  : "VTK/escoamento-monofasico_4700/boundary/right.vtp"
    Boundary  : "VTK/escoamento-monofasico_4700/boundary/up.vtp"
    Boundary  : "VTK/escoamento-monofasico_4700/boundary/down.vtp"
Wrote in 0.11 s, 155072 kB
Time: 2.4
    volScalar    : DT T gradTx gradTy gradTz
    volVector    : flux
    Internal  : "VTK/escoamento-monofasico_4800/internal.vtu"
    Boundary  : "VTK/escoamento-monofasico_4800/boundary/inlet1.vtp"
    Boundary  : "VTK/escoamento-monofasico_4800/boundary/inlet2.vtp"
    Boundary  : "VTK/escoamento-monofasico_4800/boundary/inlet3.vtp"
    Boundary  : "VTK/escoamento-monofasico_4800/boundary/left.vtp"
    Boundary  : "VTK/escoamento-monofasico_4800/boundary/right.vtp"
    Boundary  : "VTK/escoamento-monofasico_4800/boundary/up.vtp"
    Boundary  : "VTK/escoamento-monofasico_4800/boundary/down.vtp"
Wrote in 0.12 s, 162276 kB
Time: 2.45
    volScalar    : DT T gradTx gradTy gradTz
    volVector    : flux
    Internal  : "VTK/escoamento-monofasico_4900/internal.vtu"
    Boundary  : "VTK/escoamento-monofasico_4900/boundary/inlet1.vtp"
    Boundary  : "VTK/escoamento-monofasico_4900/boundary/inlet2.vtp"
    Boundary  : "VTK/escoamento-monofasico_4900/boundary/inlet3.vtp"
    Boundary  : "VTK/escoamento-monofasico_4900/boundary/left.vtp"
    Boundary  : "VTK/escoamento-monofasico_4900/boundary/right.vtp"
    Boundary  : "VTK/escoamento-monofasico_4900/boundary/up.vtp"
    Boundary  : "VTK/escoamento-monofasico_4900/boundary/down.vtp"
Wrote in 0.11 s, 155072 kB
Time: 2.5
    volScalar    : DT T gradTx gradTy gradTz
    volVector    : flux
    Internal  : "VTK/escoamento-monofasico_5000/internal.vtu"
    Boundary  : "VTK/escoamento-monofasico_5000/boundary/inlet1.vtp"
    Boundary  : "VTK/escoamento-monofasico_5000/boundary/inlet2.vtp"
    Boundary  : "VTK/escoamento-monofasico_5000/boundary/inlet3.vtp"
    Boundary  : "VTK/escoamento-monofasico_5000/boundary/left.vtp"
    Boundary  : "VTK/escoamento-monofasico_5000/boundary/right.vtp"
    Boundary  : "VTK/escoamento-monofasico_5000/boundary/up.vtp"
    Boundary  : "VTK/escoamento-monofasico_5000/boundary/down.vtp"
Wrote in 0.11 s, 162276 kB
Time: 2.55
    volScalar    : DT T gradTx gradTy gradTz
    volVector    : flux
    Internal  : "VTK/escoamento-monofasico_5100/internal.vtu"
    Boundary  : "VTK/escoamento-monofasico_5100/boundary/inlet1.vtp"
    Boundary  : "VTK/escoamento-monofasico_5100/boundary/inlet2.vtp"
    Boundary  : "VTK/escoamento-monofasico_5100/boundary/inlet3.vtp"
    Boundary  : "VTK/escoamento-monofasico_5100/boundary/left.vtp"
    Boundary  : "VTK/escoamento-monofasico_5100/boundary/right.vtp"
    Boundary  : "VTK/escoamento-monofasico_5100/boundary/up.vtp"
    Boundary  : "VTK/escoamento-monofasico_5100/boundary/down.vtp"
Wrote in 0.12 s, 155072 kB
Time: 2.6
    volScalar    : DT T gradTx gradTy gradTz
    volVector    : flux
    Internal  : "VTK/escoamento-monofasico_5200/internal.vtu"
    Boundary  : "VTK/escoamento-monofasico_5200/boundary/inlet1.vtp"
    Boundary  : "VTK/escoamento-monofasico_5200/boundary/inlet2.vtp"
    Boundary  : "VTK/escoamento-monofasico_5200/boundary/inlet3.vtp"
    Boundary  : "VTK/escoamento-monofasico_5200/boundary/left.vtp"
    Boundary  : "VTK/escoamento-monofasico_5200/boundary/right.vtp"
    Boundary  : "VTK/escoamento-monofasico_5200/boundary/up.vtp"
    Boundary  : "VTK/escoamento-monofasico_5200/boundary/down.vtp"
Wrote in 0.13 s, 162276 kB
Time: 2.65
    volScalar    : DT T gradTx gradTy gradTz
    volVector    : flux
    Internal  : "VTK/escoamento-monofasico_5300/internal.vtu"
    Boundary  : "VTK/escoamento-monofasico_5300/boundary/inlet1.vtp"
    Boundary  : "VTK/escoamento-monofasico_5300/boundary/inlet2.vtp"
    Boundary  : "VTK/escoamento-monofasico_5300/boundary/inlet3.vtp"
    Boundary  : "VTK/escoamento-monofasico_5300/boundary/left.vtp"
    Boundary  : "VTK/escoamento-monofasico_5300/boundary/right.vtp"
    Boundary  : "VTK/escoamento-monofasico_5300/boundary/up.vtp"
    Boundary  : "VTK/escoamento-monofasico_5300/boundary/down.vtp"
Wrote in 0.18 s, 155072 kB
Time: 2.7
    volScalar    : DT T gradTx gradTy gradTz
    volVector    : flux
    Internal  : "VTK/escoamento-monofasico_5400/internal.vtu"
    Boundary  : "VTK/escoamento-monofasico_5400/boundary/inlet1.vtp"
    Boundary  : "VTK/escoamento-monofasico_5400/boundary/inlet2.vtp"
    Boundary  : "VTK/escoamento-monofasico_5400/boundary/inlet3.vtp"
    Boundary  : "VTK/escoamento-monofasico_5400/boundary/left.vtp"
    Boundary  : "VTK/escoamento-monofasico_5400/boundary/right.vtp"
    Boundary  : "VTK/escoamento-monofasico_5400/boundary/up.vtp"
    Boundary  : "VTK/escoamento-monofasico_5400/boundary/down.vtp"
Wrote in 0.17 s, 162276 kB
Time: 2.75
    volScalar    : DT T gradTx gradTy gradTz
    volVector    : flux
    Internal  : "VTK/escoamento-monofasico_5500/internal.vtu"
    Boundary  : "VTK/escoamento-monofasico_5500/boundary/inlet1.vtp"
    Boundary  : "VTK/escoamento-monofasico_5500/boundary/inlet2.vtp"
    Boundary  : "VTK/escoamento-monofasico_5500/boundary/inlet3.vtp"
    Boundary  : "VTK/escoamento-monofasico_5500/boundary/left.vtp"
    Boundary  : "VTK/escoamento-monofasico_5500/boundary/right.vtp"
    Boundary  : "VTK/escoamento-monofasico_5500/boundary/up.vtp"
    Boundary  : "VTK/escoamento-monofasico_5500/boundary/down.vtp"
Wrote in 0.17 s, 156916 kB
Time: 2.8
    volScalar    : DT T gradTx gradTy gradTz
    volVector    : flux
    Internal  : "VTK/escoamento-monofasico_5600/internal.vtu"
    Boundary  : "VTK/escoamento-monofasico_5600/boundary/inlet1.vtp"
    Boundary  : "VTK/escoamento-monofasico_5600/boundary/inlet2.vtp"
    Boundary  : "VTK/escoamento-monofasico_5600/boundary/inlet3.vtp"
    Boundary  : "VTK/escoamento-monofasico_5600/boundary/left.vtp"
    Boundary  : "VTK/escoamento-monofasico_5600/boundary/right.vtp"
    Boundary  : "VTK/escoamento-monofasico_5600/boundary/up.vtp"
    Boundary  : "VTK/escoamento-monofasico_5600/boundary/down.vtp"
Wrote in 0.18 s, 162276 kB
Time: 2.85
    volScalar    : DT T gradTx gradTy gradTz
    volVector    : flux
    Internal  : "VTK/escoamento-monofasico_5700/internal.vtu"
    Boundary  : "VTK/escoamento-monofasico_5700/boundary/inlet1.vtp"
    Boundary  : "VTK/escoamento-monofasico_5700/boundary/inlet2.vtp"
    Boundary  : "VTK/escoamento-monofasico_5700/boundary/inlet3.vtp"
    Boundary  : "VTK/escoamento-monofasico_5700/boundary/left.vtp"
    Boundary  : "VTK/escoamento-monofasico_5700/boundary/right.vtp"
    Boundary  : "VTK/escoamento-monofasico_5700/boundary/up.vtp"
    Boundary  : "VTK/escoamento-monofasico_5700/boundary/down.vtp"
Wrote in 0.16 s, 155068 kB
Time: 2.9
    volScalar    : DT T gradTx gradTy gradTz
    volVector    : flux
    Internal  : "VTK/escoamento-monofasico_5800/internal.vtu"
    Boundary  : "VTK/escoamento-monofasico_5800/boundary/inlet1.vtp"
    Boundary  : "VTK/escoamento-monofasico_5800/boundary/inlet2.vtp"
    Boundary  : "VTK/escoamento-monofasico_5800/boundary/inlet3.vtp"
    Boundary  : "VTK/escoamento-monofasico_5800/boundary/left.vtp"
    Boundary  : "VTK/escoamento-monofasico_5800/boundary/right.vtp"
    Boundary  : "VTK/escoamento-monofasico_5800/boundary/up.vtp"
    Boundary  : "VTK/escoamento-monofasico_5800/boundary/down.vtp"
Wrote in 0.11 s, 162276 kB
Time: 2.95
    volScalar    : DT T gradTx gradTy gradTz
    volVector    : flux
    Internal  : "VTK/escoamento-monofasico_5900/internal.vtu"
    Boundary  : "VTK/escoamento-monofasico_5900/boundary/inlet1.vtp"
    Boundary  : "VTK/escoamento-monofasico_5900/boundary/inlet2.vtp"
    Boundary  : "VTK/escoamento-monofasico_5900/boundary/inlet3.vtp"
    Boundary  : "VTK/escoamento-monofasico_5900/boundary/left.vtp"
    Boundary  : "VTK/escoamento-monofasico_5900/boundary/right.vtp"
    Boundary  : "VTK/escoamento-monofasico_5900/boundary/up.vtp"
    Boundary  : "VTK/escoamento-monofasico_5900/boundary/down.vtp"
Wrote in 0.16 s, 155068 kB
Time: 3
    volScalar    : DT T gradTx gradTy gradTz
    volVector    : flux
    Internal  : "VTK/escoamento-monofasico_6000/internal.vtu"
    Boundary  : "VTK/escoamento-monofasico_6000/boundary/inlet1.vtp"
    Boundary  : "VTK/escoamento-monofasico_6000/boundary/inlet2.vtp"
    Boundary  : "VTK/escoamento-monofasico_6000/boundary/inlet3.vtp"
    Boundary  : "VTK/escoamento-monofasico_6000/boundary/left.vtp"
    Boundary  : "VTK/escoamento-monofasico_6000/boundary/right.vtp"
    Boundary  : "VTK/escoamento-monofasico_6000/boundary/up.vtp"
    Boundary  : "VTK/escoamento-monofasico_6000/boundary/down.vtp"
Wrote in 0.19 s, 155068 kB

End: 7.81 s, 165856 kB (peak)

